<?xml version="1.0" encoding="UTF-8"?>
<febio_spec version="3.0">
    <!--Created using GIBBON, 09-Nov-2021 21:00:56-->
    <Module type="solid"/>
    <Control>
        <analysis>STATIC</analysis>
        <time_steps>10</time_steps>
        <step_size>1</step_size>
        <solver>
            <max_refs>50</max_refs>
            <max_ups>0</max_ups>
            <diverge_reform>1</diverge_reform>
            <reform_each_time_step>1</reform_each_time_step>
            <dtol>1.0000000e-03</dtol>
            <etol>1.0000000e-02</etol>
            <rtol>0</rtol>
            <lstol>9.0000000e-01</lstol>
            <lsmin>1.0000000e-02</lsmin>
            <lsiter>5</lsiter>
            <min_residual>1.0000000e-20</min_residual>
            <optimize_bw>0</optimize_bw>
            <qnmethod>0</qnmethod>
            <cmax>100000</cmax>
        </solver>
        <time_stepper>
            <dtmin>1.0000000e-02</dtmin>
            <dtmax>1</dtmax>
            <max_retries>60</max_retries>
            <opt_iter>6</opt_iter>
        </time_stepper>
        <plot_level>PLOT_MAJOR_ITRS</plot_level>
        <plot_range>0, -1</plot_range>
        <plot_stride>1</plot_stride>
        <plot_zero_state>0</plot_zero_state>
        <output_level>OUTPUT_MAJOR_ITRS</output_level>
    </Control>
    <Globals>
        <Constants>
            <T>8.3140000e-06</T>
            <R>298</R>
            <Fc>9.6485000e-05</Fc>
        </Constants>
    </Globals>
    <Material>
        <material id="1" name="Material1" type="Ogden">
            <c1>5901</c1>
            <m1>-2</m1>
            <c2>-5197</c2>
            <m2>2</m2>
            <k>70400</k>
        </material>
    </Material>
    <Mesh>
        <Nodes name="Object1">
                <node id="1">-1.7500000e-01, 2.1431319e-17, -5.0000000e+00</node>
                <node id="2">-1.7500000e-01, 2.1431319e-17, -4.8989899e+00</node>
                <node id="3">-1.7500000e-01, 2.1431319e-17, -4.7979798e+00</node>
                <node id="4">-1.7500000e-01, 2.1431319e-17, -4.6969697e+00</node>
                <node id="5">-1.7500000e-01, 2.1431319e-17, -4.5959596e+00</node>
                <node id="6">-1.7500000e-01, 2.1431319e-17, -4.4949495e+00</node>
                <node id="7">-1.7500000e-01, 2.1431319e-17, -4.3939394e+00</node>
                <node id="8">-1.7500000e-01, 2.1431319e-17, -4.2929293e+00</node>
                <node id="9">-1.7500000e-01, 2.1431319e-17, -4.1919192e+00</node>
                <node id="10">-1.7500000e-01, 2.1431319e-17, -4.0909091e+00</node>
                <node id="11">-1.7500000e-01, 2.1431319e-17, -3.9898990e+00</node>
                <node id="12">-1.7500000e-01, 2.1431319e-17, -3.8888889e+00</node>
                <node id="13">-1.7500000e-01, 2.1431319e-17, -3.7878788e+00</node>
                <node id="14">-1.7500000e-01, 2.1431319e-17, -3.6868687e+00</node>
                <node id="15">-1.7500000e-01, 2.1431319e-17, -3.5858586e+00</node>
                <node id="16">-1.7500000e-01, 2.1431319e-17, -3.4848485e+00</node>
                <node id="17">-1.7500000e-01, 2.1431319e-17, -3.3838384e+00</node>
                <node id="18">-1.7500000e-01, 2.1431319e-17, -3.2828283e+00</node>
                <node id="19">-1.7500000e-01, 2.1431319e-17, -3.1818182e+00</node>
                <node id="20">-1.7500000e-01, 2.1431319e-17, -3.0808081e+00</node>
<!-- ... 1680 like lines cut -->
        </Nodes>
        <Elements name="Part1" type="hex8">
                <elem id="1">301, 701, 801, 401, 302, 702, 802, 402</elem>
                <elem id="2">401, 801, 901, 501, 402, 802, 902, 502</elem>
                <elem id="3">701, 1101, 1201, 801, 702, 1102, 1202, 802</elem>
                <elem id="4">801, 1201, 1301, 901, 802, 1202, 1302, 902</elem>
                <elem id="5">301, 101, 601, 701, 302, 102, 602, 702</elem>
                <elem id="6">701, 601, 1401, 1101, 702, 602, 1402, 1102</elem>
                <elem id="7">1101, 1401, 1601, 1201, 1102, 1402, 1602, 1202</elem>
                <elem id="8">1201, 1601, 1501, 1301, 1202, 1602, 1502, 1302</elem>
                <elem id="9">1301, 1501, 1001, 901, 1302, 1502, 1002, 902</elem>
                <elem id="10">901, 1001, 201, 501, 902, 1002, 202, 502</elem>
                <elem id="11">501, 201, 1, 401, 502, 202, 2, 402</elem>
                <elem id="12">401, 1, 101, 301, 402, 2, 102, 302</elem>
                <elem id="13">302, 702, 802, 402, 303, 703, 803, 403</elem>
                <elem id="14">402, 802, 902, 502, 403, 803, 903, 503</elem>
                <elem id="15">702, 1102, 1202, 802, 703, 1103, 1203, 803</elem>
                <elem id="16">802, 1202, 1302, 902, 803, 1203, 1303, 903</elem>
                <elem id="17">302, 102, 602, 702, 303, 103, 603, 703</elem>
                <elem id="18">702, 602, 1402, 1102, 703, 603, 1403, 1103</elem>
                <elem id="19">1102, 1402, 1602, 1202, 1103, 1403, 1603, 1203</elem>
                <elem id="20">1202, 1602, 1502, 1302, 1203, 1603, 1503, 1303</elem>
<!-- ... 1168 like lines cut -->
        </Elements>
        <NodeSet name="bcSupportList">
                <node id="1"/>
                <node id="101"/>
                <node id="201"/>
                <node id="301"/>
                <node id="401"/>
                <node id="501"/>
                <node id="601"/>
                <node id="701"/>
                <node id="801"/>
                <node id="901"/>
                <node id="1001"/>
                <node id="1101"/>
                <node id="1201"/>
                <node id="1301"/>
                <node id="1401"/>
                <node id="1501"/>
                <node id="1601"/>
        </NodeSet>
        <NodeSet name="bcPrescribeList_Z">
                <node id="100"/>
                <node id="200"/>
                <node id="300"/>
                <node id="400"/>
                <node id="500"/>
                <node id="600"/>
                <node id="700"/>
                <node id="800"/>
                <node id="900"/>
                <node id="1000"/>
                <node id="1100"/>
                <node id="1200"/>
                <node id="1300"/>
                <node id="1400"/>
                <node id="1500"/>
                <node id="1600"/>
                <node id="1700"/>
        </NodeSet>
    </Mesh>
    <MeshDomains>
        <SolidDomain mat="Material1" name="Part1"/>
    </MeshDomains>
    <Boundary>
        <bc node_set="bcSupportList" type="fix">
            <dofs>x</dofs>
        </bc>
        <bc node_set="bcSupportList" type="fix">
            <dofs>y</dofs>
        </bc>
        <bc node_set="bcSupportList" type="fix">
            <dofs>z</dofs>
        </bc>
        <bc node_set="bcPrescribeList_Z" type="fix">
            <dofs>x</dofs>
        </bc>
        <bc node_set="bcPrescribeList_Z" type="fix">
            <dofs>y</dofs>
        </bc>
        <bc node_set="bcPrescribeList_Z" type="prescribe">
            <dof>z</dof>
            <scale lc="1">1</scale>
            <relative>0</relative>
        </bc>
    </Boundary>
    <LoadData>
        <load_controller id="1" type="loadcurve">
            <interpolate>LINEAR</interpolate>
            <points>
                    <point>0.0000000e+00, 0.0000000e+00</point>
                    <point>1.0000000e+01, 4.3625000e-01</point>
            </points>
        </load_controller>
    </LoadData>
    <Output>
        <plotfile type="febio">
            <var type="displacement"/>
            <var type="stress"/>
            <var type="relative volume"/>
            <var type="reaction forces"/>
            <var type="contact pressure"/>
        </plotfile>
        <logfile file="tempModel.txt">
            <node_data data="ux;uy;uz" delim="," file="tempModel_disp_out.txt">1, 2, 3, 4, 5, 6, 7, 8, 9, 10, 11, 12, 13, 14, 15, 16, 17, 18, 19, 20, 21, 22, 23, 24, 25, 26, 27, 28, 29, 30, 31, 32, 33, 34, 35, 36, 37, 38, 39, 40, 41, 42, 43, 44, 45, 46, 47, 48, 49, 50, 51, 52, 53, 54, 55, 56, 57, 58, 59, 60, 61, 62, 63, 64, 65, 66, 67, 68, 69, 70, 71, 72, 73, 74, 75, 76, 77, 78, 79, 80, 81, 82, 83
            <node_data data="Rx;Ry;Rz" delim="," file="tempModel_force_out.txt">1, 2, 3, 4, 5, 6, 7, 8, 9, 10, 11, 12, 13, 14, 15, 16, 17, 18, 19, 20, 21, 22, 23, 24, 25, 26, 27, 28, 29, 30, 31, 32, 33, 34, 35, 36, 37, 38, 39, 40, 41, 42, 43, 44, 45, 46, 47, 48, 49, 50, 51, 52, 53, 54, 55, 56, 57, 58, 59, 60, 61, 62, 63, 64, 65, 66, 67, 68, 69, 70, 71, 72, 73, 74, 75, 76, 77, 78, 79, 80, 81, 82, 8
            <element_data data="sz" delim="," file="tempModel_stress_out.txt">1, 2, 3, 4, 5, 6, 7, 8, 9, 10, 11, 12, 13, 14, 15, 16, 17, 18, 19, 20, 21, 22, 23, 24, 25, 26, 27, 28, 29, 30, 31, 32, 33, 34, 35, 36, 37, 38, 39, 40, 41, 42, 43, 44, 45, 46, 47, 48, 49, 50, 51, 52, 53, 54, 55, 56, 57, 58, 59, 60, 61, 62, 63, 64, 65, 66, 67, 68, 69, 70, 71, 72, 73, 74, 75, 76, 77, 78, 79, 80, 81, 82, 83,
        </logfile>
    </Output>
</febio_spec>
