*HEADING
Created using the MATLAB function export_INP.m by Kevin Mattheus Moerman
**
********************************** P A R T S **********************************
*PART, NAME=Part-Default
**
********************************** N O D E S **********************************
*NODE, NSET=ALLNODES 
       1, 1.742920e+01, -5.098651e+01, -8.523629e+00
       2,-2.157080e+01, -5.098651e+01, -8.523629e+00
       3, 1.741678e+01, -5.098651e+01, -9.219629e+00
       4, 1.737952e+01, -5.098651e+01, -9.914743e+00
       5, 1.731747e+01, -5.098651e+01, -1.060808e+01
       6, 1.723072e+01, -5.098651e+01, -1.129877e+01
       7, 1.711937e+01, -5.098651e+01, -1.198592e+01
       8, 1.698356e+01, -5.098651e+01, -1.266865e+01
       9, 1.682348e+01, -5.098651e+01, -1.334611e+01
      10, 1.663931e+01, -5.098651e+01, -1.401741e+01
      11, 1.643131e+01, -5.098651e+01, -1.468172e+01
      12, 1.619972e+01, -5.098651e+01, -1.533818e+01
      13, 1.594485e+01, -5.098651e+01, -1.598596e+01
      14, 1.566702e+01, -5.098651e+01, -1.662422e+01
      15, 1.536659e+01, -5.098651e+01, -1.725217e+01
      16, 1.504394e+01, -5.098651e+01, -1.786898e+01
      17, 1.469948e+01, -5.098651e+01, -1.847389e+01
      18, 1.433364e+01, -5.098651e+01, -1.906613e+01
      19, 1.394691e+01, -5.098651e+01, -1.964492e+01
      20, 1.353975e+01, -5.098651e+01, -2.020954e+01
** ... 4728 like lines cut
**
********************************** E L E M E N T S ****************************
*ELEMENT, TYPE=S4R, ELSET=EB1
    1057,       1,     710,    1234,    1233
    1058,     710,     709,    1235,    1234
    1059,     709,     708,    1236,    1235
    1060,     708,     707,    1237,    1236
    1061,     707,     706,    1238,    1237
    1062,     706,     705,    1239,    1238
    1063,     705,     704,    1240,    1239
    1064,     704,     703,    1241,    1240
    1065,     703,     702,    1242,    1241
    1066,     702,     701,    1243,    1242
    1067,     701,     700,    1244,    1243
    1068,     700,     699,    1245,    1244
    1069,     699,     698,    1246,    1245
    1070,     698,     697,    1247,    1246
    1071,     697,     696,    1248,    1247
    1072,     696,     695,    1249,    1248
    1073,     695,     694,    1250,    1249
    1074,     694,     693,    1251,    1250
    1075,     693,     692,    1252,    1251
    1076,     692,     691,    1253,    1252
** ... 4639 like lines cut
**
********************************** P R O P E R T I E S ************************
*SHELL SECTION, ELSET=EB1, SECTION INTEGRATION=SIMPSON, MATERIAL=Default-Steel
1.000000e+000
**
*END PART
**
**
**
********************************** E N D   P A R T S **********************************
**
**
********************************** A S S E M B L Y ************************************
**
*ASSEMBLY, NAME=ASSEMBLY1
**
*INSTANCE, NAME=Part-Default_1, PART=Part-Default
*END INSTANCE
**
*END ASSEMBLY
**
**
**
*MATERIAL, NAME = Default-Steel
*ELASTIC, TYPE=ISOTROPIC
2.068000e+005, 2.900000e-001
*DENSITY
7.000000e-006
*CONDUCTIVITY,TYPE=ISO
4.500000e-002
*SPECIFIC HEAT
5.000000e+002
**
**
************************************** H I S T O R Y *************************************
**
*PREPRINT
**
**************************************** S T E P 1 ***************************************
*STEP,INC=100,NAME=Default Set
**
*STATIC
1, 1, 1e-005, 1
**
**
**
**
*END STEP
