*HEADING
Created using the MATLAB function export_INP.m by Kevin Mattheus Moerman
**
********************************** P A R T S **********************************
*PART, NAME=Part-Default
**
********************************** N O D E S **********************************
*NODE, NSET=ALLNODES 
       1,-2.555264e+01, -3.282099e+01, -1.104314e+02
       2,-2.830981e+01, -2.979909e+01, -1.103029e+02
       3,-3.090402e+01, -2.628108e+01, -1.101532e+02
       4,-3.307244e+01, -2.259503e+01, -1.099964e+02
       5,-3.496953e+01, -1.829139e+01, -1.098134e+02
       6,-3.630335e+01, -1.335088e+01, -1.096032e+02
       7,-3.673203e+01, -7.814366e+00, -1.093677e+02
       8,-3.591437e+01, -1.721474e+00, -1.091086e+02
       9,-3.383353e+01,  4.272454e+00, -1.088536e+02
      10,-3.102378e+01,  9.624412e+00, -1.086260e+02
      11,-2.861427e+01,  1.385474e+01, -1.084460e+02
      12,-2.670301e+01,  1.766440e+01, -1.082840e+02
      13,-2.509867e+01,  2.113159e+01, -1.081365e+02
      14,-2.355194e+01,  2.453916e+01, -1.079916e+02
      15,-2.163484e+01,  2.805667e+01, -1.078420e+02
      16,-1.915604e+01,  3.146912e+01, -1.076968e+02
      17,-1.610555e+01,  3.451955e+01, -1.075671e+02
      18,-1.255664e+01,  3.695229e+01, -1.074636e+02
      19,-8.652632e+00,  3.869048e+01, -1.073897e+02
      20,-4.653271e+00,  3.964685e+01, -1.073490e+02
** ... 25308 like lines cut
**
********************************** E L E M E N T S ****************************
*ELEMENT, TYPE=S4R, ELSET=PART-DEFAULT_1_EB1
   21253,     213,     214,     764,     763
   21254,     199,     535,    1085,     749
   21255,     200,     533,    1083,     750
   21256,     201,     530,    1080,     751
   21257,     202,     527,    1077,     752
   21258,     198,     474,    1024,     748
   21259,     197,     478,    1028,     747
   21260,     196,     481,    1031,     746
   21261,     195,     484,    1034,     745
   21262,     194,     487,    1037,     744
   21263,     193,     490,    1040,     743
   21264,     192,     493,    1043,     742
   21265,     212,     496,    1046,     762
   21266,     211,     500,    1050,     761
   21267,     210,     503,    1053,     760
   21268,     209,     506,    1056,     759
   21269,     208,     509,    1059,     758
   21270,     207,     512,    1062,     757
   21271,     206,     515,    1065,     756
   21272,     205,     518,    1068,     755
** ... 4516 like lines cut
**
********************************** P R O P E R T I E S ************************
*SHELL SECTION, ELSET=EB1, SECTION INTEGRATION=SIMPSON, MATERIAL=Default-Steel
1.000000e+000
**
*END PART
**
**
**
********************************** E N D   P A R T S **********************************
**
**
********************************** A S S E M B L Y ************************************
**
*ASSEMBLY, NAME=ASSEMBLY1
**
*INSTANCE, NAME=Part-Default_1, PART=Part-Default
*END INSTANCE
**
*END ASSEMBLY
**
**
**
*MATERIAL, NAME = Default-Steel
*ELASTIC, TYPE=ISOTROPIC
2.068000e+005, 2.900000e-001
*DENSITY
7.000000e-006
*CONDUCTIVITY,TYPE=ISO
4.500000e-002
*SPECIFIC HEAT
5.000000e+002
**
**
************************************** H I S T O R Y *************************************
**
*PREPRINT
**
**************************************** S T E P 1 ***************************************
*STEP,INC=100,NAME=Default Set
**
*STATIC
1, 1, 1e-005, 1
**
**
**
**
*END STEP
