*HEADING
cubit(ORK/00_FEA/01_CUBIT/HUMAN_DYNAMIC_12_12_2009/temp_tri.inp): 08/23/2012: 14
version: 13.0
**
********************************** P A R T S **********************************
*PART, NAME=Part-Default
**
********************************** N O D E S **********************************
*NODE, NSET=ALLNODES
       1,   3.393609e+001,  -3.097683e+000,  -7.985626e+001
       2,   3.267455e+001,   4.952774e+000,  -8.020984e+001
       3,   3.024319e+001,   1.273410e+001,  -8.055462e+001
       4,   2.653567e+001,   1.997702e+001,  -8.087915e+001
       5,   2.115452e+001,   2.608488e+001,  -8.115844e+001
       6,   1.474739e+001,   3.113117e+001,  -8.139409e+001
       7,   7.529806e+000,   3.489492e+001,  -8.157593e+001
       8,  -5.056068e-001,   3.610214e+001,  -8.164852e+001
       9,  -8.504012e+000,   3.463122e+001,  -8.160445e+001
      10,  -1.579580e+001,   3.101192e+001,  -8.146509e+001
      11,  -2.198252e+001,   2.572206e+001,  -8.125026e+001
      12,  -2.698122e+001,   1.927984e+001,  -8.098230e+001
      13,  -3.138656e+001,   1.241281e+001,  -8.069437e+001
      14,  -3.520125e+001,   5.208687e+000,  -8.039030e+001
      15,  -3.743407e+001,  -2.622901e+000,  -8.005497e+001
      16,  -3.997361e+001,  -1.035962e+001,  -7.972452e+001
      17,  -4.277143e+001,  -1.801797e+001,  -7.939814e+001
      18,  -4.352287e+001,  -2.607009e+001,  -7.904951e+001
      19,  -4.063341e+001,  -3.360626e+001,  -7.871426e+001
      20,  -3.492147e+001,  -3.936968e+001,  -7.844913e+001
** ... 1233 like lines cut
**
********************************** E L E M E N T S ****************************
*ELEMENT, TYPE=STRI3, ELSET=PART-DEFAULT_1_EB1
    1210,      32,       1,     783
    1895,       1,       2,     782
    1897,       1,     782,     783
     302,       3,     781,       2
     755,       2,     781,     782
     268,       3,       4,     792
    1492,       3,     792,     781
    1176,       4,     791,     792
    1460,       4,       5,     791
     323,       5,     780,     791
    1972,       6,     780,       5
    1254,       7,     800,       6
    1408,     800,     780,       6
     961,       7,       8,     802
    1316,       7,     802,     800
    1534,       8,       9,     798
    1571,       8,     798,     802
    1604,       9,      10,     797
    2065,       9,     797,     798
    1601,      10,      11,     790
** ... 2417 like lines cut
**
********************************** N O D E S E T S **********************************
*NSET, NSET=PART-DEFAULT_1_ALLNODES
       1,       2,       3,       4,       5,       6,
       7,       8,       9,      10,      11,      12,
      13,      14,      15,      16,      17,      18,
      19,      20,      21,      22,      23,      24,
      25,      26,      27,      28,      29,      30,
      31,      32,      33,      34,      35,      36,
      37,      38,      39,      40,      41,      42,
      43,      44,      45,      46,      47,      48,
      49,      50,      51,      52,      53,      54,
      55,      56,      57,      58,      59,      60,
      61,      62,      63,      64,      65,      66,
      67,      68,      69,      70,      71,      72,
      73,      74,      75,      76,      77,      78,
      79,      80,      81,      82,      83,      84,
      85,      86,      87,      88,      89,      90,
      91,      92,      93,      94,      95,      96,
      97,      98,      99,     100,     101,     102,
     103,     104,     105,     106,     107,     108,
     109,     110,     111,     112,     113,     114,
     115,     116,     117,     118,     119,     120,
** ... 189 like lines cut
**
********************************** P R O P E R T I E S ************************
*SHELL SECTION, ELSET=PART-DEFAULT_1_EB1, SECTION INTEGRATION=SIMPSON, MATERIAL=DEFAULT-STEEL
1.000000e+000
**
*END PART
**
**
**
********************************** E N D   P A R T S **********************************
**
**
********************************** A S S E M B L Y ************************************
**
*ASSEMBLY, NAME=ASSEMBLY1
**
*INSTANCE, NAME=Part-Default_1, PART=Part-Default
*END INSTANCE
**
*END ASSEMBLY
**
**
**
*MATERIAL, NAME = DEFAULT-STEEL
*ELASTIC, TYPE=ISOTROPIC
2.068000e+005, 2.900000e-001
*DENSITY
7.000000e-006
*CONDUCTIVITY,TYPE=ISO
4.500000e-002
*SPECIFIC HEAT
5.000000e+002
**
**
************************************** H I S T O R Y *************************************
**
*PREPRINT
**
**************************************** S T E P 1 ***************************************
*STEP,INC=100,NAME=DEFAULT SET
**
*STATIC
1, 1, 1e-005, 1
**
**
**
**
*END STEP
