*HEADING
Created using the MATLAB function export_INP.m by Kevin Mattheus Moerman
**
********************************** P A R T S **********************************
*PART, NAME=Part-Default
**
********************************** N O D E S **********************************
*NODE, NSET=ALLNODES 
       1, 3.393609e+01, -3.097683e+00, -7.985626e+01
       2, 3.267455e+01,  4.952774e+00, -8.020984e+01
       3, 3.024319e+01,  1.273410e+01, -8.055462e+01
       4, 2.653567e+01,  1.997702e+01, -8.087915e+01
       5, 2.115452e+01,  2.608488e+01, -8.115844e+01
       6, 1.474739e+01,  3.113117e+01, -8.139409e+01
       7, 7.529806e+00,  3.489492e+01, -8.157593e+01
       8,-5.056068e-01,  3.610214e+01, -8.164852e+01
       9,-8.504012e+00,  3.463122e+01, -8.160445e+01
      10,-1.579580e+01,  3.101192e+01, -8.146509e+01
      11,-2.198252e+01,  2.572206e+01, -8.125026e+01
      12,-2.698122e+01,  1.927984e+01, -8.098230e+01
      13,-3.138656e+01,  1.241281e+01, -8.069437e+01
      14,-3.520125e+01,  5.208687e+00, -8.039030e+01
      15,-3.743407e+01, -2.622901e+00, -8.005497e+01
      16,-3.997361e+01, -1.035962e+01, -7.972452e+01
      17,-4.277143e+01, -1.801797e+01, -7.939814e+01
      18,-4.352287e+01, -2.607009e+01, -7.904951e+01
      19,-4.063341e+01, -3.360626e+01, -7.871426e+01
      20,-3.492147e+01, -3.936968e+01, -7.844913e+01
** ... 8504 like lines cut
**
********************************** E L E M E N T S ****************************
*ELEMENT, TYPE=C3D4, ELSET=PART-DEFAULT_1_EB1
      10,    1347,    1351,    1349,    1355
      11,    1347,    1349,    1348,    1356
      20,     799,     259,     102,    1375
      21,    1376,    1377,    1378,    1379
      22,    1376,    1378,    1380,    1381
      23,    1376,    1379,    1382,    1383
      24,    1376,    1378,    1381,    1384
      25,    1385,    1386,    1387,    1388
      30,    1395,    1396,    1397,    1398
      31,    1396,    1399,    1400,    1401
      32,    1398,    1402,    1399,    1403
      33,    1397,    1403,    1399,    1404
      34,    1399,    1401,    1404,    1405
      35,    1396,    1399,    1398,    1406
      36,    1395,    1398,    1397,    1407
      37,    1397,    1408,    1407,    1409
      38,    1395,    1397,    1396,    1410
      39,    1395,    1410,    1396,    1411
      46,    1422,    1384,    1423,    1424
      53,    1174,    1166,    1431,    1432
** ... 45290 like lines cut
**
********************************** P R O P E R T I E S ************************
*SHELL SECTION, ELSET=EB1, SECTION INTEGRATION=SIMPSON, MATERIAL=Default-Steel
1.000000e+000
**
*END PART
**
**
**
********************************** E N D   P A R T S **********************************
**
**
********************************** A S S E M B L Y ************************************
**
*ASSEMBLY, NAME=ASSEMBLY1
**
*INSTANCE, NAME=Part-Default_1, PART=Part-Default
*END INSTANCE
**
*END ASSEMBLY
**
**
**
*MATERIAL, NAME = Default-Steel
*ELASTIC, TYPE=ISOTROPIC
2.068000e+005, 2.900000e-001
*DENSITY
7.000000e-006
*CONDUCTIVITY,TYPE=ISO
4.500000e-002
*SPECIFIC HEAT
5.000000e+002
**
**
************************************** H I S T O R Y *************************************
**
*PREPRINT
**
**************************************** S T E P 1 ***************************************
*STEP,INC=100,NAME=Default Set
**
*STATIC
1, 1, 1e-005, 1
**
**
**
**
*END STEP
