*HEADING
Created using the MATLAB function export_INP.m by Kevin Mattheus Moerman
**
********************************** P A R T S **********************************
*PART, NAME=Part-Default
**
********************************** N O D E S **********************************
*NODE, NSET=ALLNODES 
       1,-2.555264e+01, -3.282099e+01, -1.104314e+02
       2,-2.830981e+01, -2.979909e+01, -1.103029e+02
       3,-3.090402e+01, -2.628108e+01, -1.101532e+02
       4,-3.307244e+01, -2.259503e+01, -1.099964e+02
       5,-3.496953e+01, -1.829139e+01, -1.098134e+02
       6,-3.630335e+01, -1.335088e+01, -1.096032e+02
       7,-3.673203e+01, -7.814366e+00, -1.093677e+02
       8,-3.591437e+01, -1.721474e+00, -1.091086e+02
       9,-3.383353e+01,  4.272454e+00, -1.088536e+02
      10,-3.102378e+01,  9.624412e+00, -1.086260e+02
      11,-2.861427e+01,  1.385474e+01, -1.084460e+02
      12,-2.670301e+01,  1.766440e+01, -1.082840e+02
      13,-2.509867e+01,  2.113159e+01, -1.081365e+02
      14,-2.355194e+01,  2.453916e+01, -1.079916e+02
      15,-2.163484e+01,  2.805667e+01, -1.078420e+02
      16,-1.915604e+01,  3.146912e+01, -1.076968e+02
      17,-1.610555e+01,  3.451955e+01, -1.075671e+02
      18,-1.255664e+01,  3.695229e+01, -1.074636e+02
      19,-8.652632e+00,  3.869048e+01, -1.073897e+02
      20,-4.653271e+00,  3.964685e+01, -1.073490e+02
** ... 25308 like lines cut
**
********************************** E L E M E N T S ****************************
*ELEMENT, TYPE=C3D8R, ELSET=PART-DEFAULT_1_EB1
       1,     156,     392,     550,     157,     706,     942,    1100,     707
       2,      57,     157,     550,     549,     607,     707,    1100,    1099
       3,      56,     549,     550,     392,     606,    1099,    1100,     942
       4,     166,     546,     548,     157,     716,    1096,    1098,     707
       5,     156,     157,     548,     411,     706,     707,    1098,     961
       6,     165,     411,     548,     546,     715,     961,    1098,    1096
       7,     104,     356,     547,     103,     654,     906,    1097,     653
       8,     166,     103,     547,     546,     716,     653,    1097,    1096
       9,     165,     546,     547,     356,     715,    1096,    1097,     906
      10,       9,     543,     544,     103,     559,    1093,    1094,     653
      11,     104,     103,     544,     298,     654,     653,    1094,     848
      12,       8,     298,     544,     543,     558,     848,    1094,    1093
      13,      52,     377,     542,      51,     602,     927,    1092,     601
      14,     130,      51,     542,     540,     680,     601,    1092,    1090
      15,     129,     540,     542,     377,     679,    1090,    1092,     927
      16,      34,      33,      79,      78,     584,     583,     629,     628
      17,      33,      32,      80,      79,     583,     582,     630,     629
      18,      32,      31,      81,      80,     582,     581,     631,     630
      19,      31,      30,      82,      81,     581,     580,     632,     631
      20,      30,      29,      83,      82,     580,     579,     633,     632
** ... 21232 like lines cut
**
********************************** P R O P E R T I E S ************************
*SHELL SECTION, ELSET=EB1, SECTION INTEGRATION=SIMPSON, MATERIAL=Default-Steel
1.000000e+000
**
*END PART
**
**
**
********************************** E N D   P A R T S **********************************
**
**
********************************** A S S E M B L Y ************************************
**
*ASSEMBLY, NAME=ASSEMBLY1
**
*INSTANCE, NAME=Part-Default_1, PART=Part-Default
*END INSTANCE
**
*END ASSEMBLY
**
**
**
*MATERIAL, NAME = Default-Steel
*ELASTIC, TYPE=ISOTROPIC
2.068000e+005, 2.900000e-001
*DENSITY
7.000000e-006
*CONDUCTIVITY,TYPE=ISO
4.500000e-002
*SPECIFIC HEAT
5.000000e+002
**
**
************************************** H I S T O R Y *************************************
**
*PREPRINT
**
**************************************** S T E P 1 ***************************************
*STEP,INC=100,NAME=Default Set
**
*STATIC
1, 1, 1e-005, 1
**
**
**
**
*END STEP
