<?xml version="1.0" encoding="utf-8"?>
<febio_spec version="2.0"><!--Created using GIBBON, 28-May-2015 21:55:50-->
   <Module type="solid"/>
   <Control>
      <time_steps>10.000000</time_steps>
      <step_size>0.100000</step_size>
      <max_refs>15.000000</max_refs>
      <max_ups>0.000000</max_ups>
      <dtol>0.001000</dtol>
      <etol>0.010000</etol>
      <rtol>0.000000</rtol>
      <lstol>0.900000</lstol>
      <analysis type="static"/>
      <time_stepper>
         <dtmin>0.000010</dtmin>
         <dtmax>0.100000</dtmax>
         <max_retries>10.000000</max_retries>
         <opt_iter>10.000000</opt_iter>
         <aggressiveness>1.000000</aggressiveness>
      </time_stepper>
   </Control>
   <Globals>
      <Constants>
         <T>0.0000000e+00</T>
         <R>0.0000000e+00</R>
         <Fc>0.0000000e+00</Fc>
      </Constants>
   </Globals>
   <Material>
      <material id="1" name="Block_material" type="Ogden">
         <c1>1.0000000e-03</c1>
         <m1>2.0000000e+00</m1>
         <k>1.0000000e-01</k>
      </material>
   </Material>
   <Geometry>
      <Nodes>
         <node id="1">-5.0000000e+00, -5.0000000e+00, -5.0000000e+00</node>
         <node id="2">-5.0000000e+00, -3.0000000e+00, -5.0000000e+00</node>
         <node id="3">-5.0000000e+00, -1.0000000e+00, -5.0000000e+00</node>
         <node id="4">-5.0000000e+00, 1.0000000e+00, -5.0000000e+00</node>
         <node id="5">-5.0000000e+00, 3.0000000e+00, -5.0000000e+00</node>
         <node id="6">-5.0000000e+00, 5.0000000e+00, -5.0000000e+00</node>
         <node id="7">-3.0000000e+00, -5.0000000e+00, -5.0000000e+00</node>
         <node id="8">-3.0000000e+00, -3.0000000e+00, -5.0000000e+00</node>
         <node id="9">-3.0000000e+00, -1.0000000e+00, -5.0000000e+00</node>
         <node id="10">-3.0000000e+00, 1.0000000e+00, -5.0000000e+00</node>
         <node id="11">-3.0000000e+00, 3.0000000e+00, -5.0000000e+00</node>
         <node id="12">-3.0000000e+00, 5.0000000e+00, -5.0000000e+00</node>
         <node id="13">-1.0000000e+00, -5.0000000e+00, -5.0000000e+00</node>
         <node id="14">-1.0000000e+00, -3.0000000e+00, -5.0000000e+00</node>
         <node id="15">-1.0000000e+00, -1.0000000e+00, -5.0000000e+00</node>
         <node id="16">-1.0000000e+00, 1.0000000e+00, -5.0000000e+00</node>
         <node id="17">-1.0000000e+00, 3.0000000e+00, -5.0000000e+00</node>
         <node id="18">-1.0000000e+00, 5.0000000e+00, -5.0000000e+00</node>
         <node id="19">1.0000000e+00, -5.0000000e+00, -5.0000000e+00</node>
         <node id="20">1.0000000e+00, -3.0000000e+00, -5.0000000e+00</node>
<!-- ... 196 like lines cut -->
      </Nodes>
      <Elements mat="1" name="Block" type="hex8">
         <elem id="1">   1,   7,   8,   2,   37,   43,   44,   38</elem>
         <elem id="2">   2,   8,   9,   3,   38,   44,   45,   39</elem>
         <elem id="3">   3,   9,   10,   4,   39,   45,   46,   40</elem>
         <elem id="4">   4,   10,   11,   5,   40,   46,   47,   41</elem>
         <elem id="5">   5,   11,   12,   6,   41,   47,   48,   42</elem>
         <elem id="6">   7,   13,   14,   8,   43,   49,   50,   44</elem>
         <elem id="7">   8,   14,   15,   9,   44,   50,   51,   45</elem>
         <elem id="8">   9,   15,   16,   10,   45,   51,   52,   46</elem>
         <elem id="9">   10,   16,   17,   11,   46,   52,   53,   47</elem>
         <elem id="10">   11,   17,   18,   12,   47,   53,   54,   48</elem>
         <elem id="11">   13,   19,   20,   14,   49,   55,   56,   50</elem>
         <elem id="12">   14,   20,   21,   15,   50,   56,   57,   51</elem>
         <elem id="13">   15,   21,   22,   16,   51,   57,   58,   52</elem>
         <elem id="14">   16,   22,   23,   17,   52,   58,   59,   53</elem>
         <elem id="15">   17,   23,   24,   18,   53,   59,   60,   54</elem>
         <elem id="16">   19,   25,   26,   20,   55,   61,   62,   56</elem>
         <elem id="17">   20,   26,   27,   21,   56,   62,   63,   57</elem>
         <elem id="18">   21,   27,   28,   22,   57,   63,   64,   58</elem>
         <elem id="19">   22,   28,   29,   23,   58,   64,   65,   59</elem>
         <elem id="20">   23,   29,   30,   24,   59,   65,   66,   60</elem>
<!-- ... 105 like lines cut -->
      </Elements>
      <NodeSet name="bcSupportList_Y_axis">
         <node id="1"/>
         <node id="2"/>
         <node id="3"/>
         <node id="4"/>
         <node id="5"/>
         <node id="6"/>
      </NodeSet>
      <NodeSet name="bcSupportList_X_axis">
         <node id="1"/>
         <node id="7"/>
         <node id="13"/>
         <node id="19"/>
         <node id="25"/>
         <node id="31"/>
      </NodeSet>
      <NodeSet name="bcSupportList_Z">
         <node id="1"/>
         <node id="2"/>
         <node id="3"/>
         <node id="4"/>
         <node id="5"/>
         <node id="6"/>
         <node id="7"/>
         <node id="8"/>
         <node id="9"/>
         <node id="10"/>
         <node id="11"/>
         <node id="12"/>
         <node id="13"/>
         <node id="14"/>
         <node id="15"/>
         <node id="16"/>
         <node id="17"/>
         <node id="18"/>
         <node id="19"/>
         <node id="20"/>
<!-- ... 16 like lines cut -->
      </NodeSet>
      <NodeSet name="bcPrescribeList">
         <node id="181"/>
         <node id="182"/>
         <node id="183"/>
         <node id="184"/>
         <node id="185"/>
         <node id="186"/>
         <node id="187"/>
         <node id="188"/>
         <node id="189"/>
         <node id="190"/>
         <node id="191"/>
         <node id="192"/>
         <node id="193"/>
         <node id="194"/>
         <node id="195"/>
         <node id="196"/>
         <node id="197"/>
         <node id="198"/>
         <node id="199"/>
         <node id="200"/>
<!-- ... 16 like lines cut -->
      </NodeSet>
   </Geometry>
   <Boundary>
      <fix bc="x" set="bcSupportList_Y_axis"/>
      <fix bc="y" set="bcSupportList_X_axis"/>
      <fix bc="z" set="bcSupportList_Z"/>
      <prescribe bc="z" lc="1" scale="40" set="bcPrescribeList" type="relative"/>
   </Boundary>
   <LoadData>
      <loadcurve id="1" type="linear">
         <loadpoint>0.000000, 0.000000</loadpoint>
         <loadpoint>1.000000, 1.000000</loadpoint>
      </loadcurve>
   </LoadData>
   <Output>
      <plotfile type="febio">
         <var type="displacement"/>
         <var type="stress"/>
         <var type="relative volume"/>
         <var type="shell thickness"/>
      </plotfile>
      <logfile>
         <node_data data="ux;uy;uz" delim=", " file="D:\MATLAB\GIBBON\trunk\data\temp\tempModel_node_out.txt"/>
         <node_data data="Rx;Ry;Rz" delim=", " file="D:\MATLAB\GIBBON\trunk\data\temp\tempModel_force_out.txt"/>
      </logfile>
   </Output>
</febio_spec>
