<?xml version="1.0" encoding="utf-8"?>
<!-- 
Created using GIBBON, 28-Oct-2014 11:42:58
-->
<febio_spec version="1.2">
   <Module type="solid"/>
   <Control>
      <time_steps>10.000000</time_steps>
      <step_size>0.100000</step_size>
      <max_refs>25.000000</max_refs>
      <max_ups>0.000000</max_ups>
      <dtol>0.001000</dtol>
      <etol>0.010000</etol>
      <rtol>0.000000</rtol>
      <lstol>0.900000</lstol>
      <analysis type="static"/>
      <time_stepper>
         <dtmin>0.000010</dtmin>
         <dtmax>0.100000</dtmax>
         <max_retries>5.000000</max_retries>
         <opt_iter>5.000000</opt_iter>
         <aggressiveness>1.000000</aggressiveness>
      </time_stepper>
   </Control>
   <Globals>
      <Constants>
         <T>0.0000000e+00</T>
         <R>0.0000000e+00</R>
         <Fc>0.0000000e+00</Fc>
      </Constants>
   </Globals>
   <Material>
      <material id="1" name="mat_1" type="Mooney-Rivlin">
         <c1>1.0000000e-03</c1>
         <c2>0.0000000e+00</c2>
         <k>1.0000000e+00</k>
      </material>
   </Material>
   <Geometry>
      <Nodes>
         <node id="1">-1.0000000e+01, -2.5000000e+00, -2.5000000e+00</node>
         <node id="2">-1.0000000e+01, -1.5000000e+00, -2.5000000e+00</node>
         <node id="3">-1.0000000e+01, -5.0000000e-01, -2.5000000e+00</node>
         <node id="4">-1.0000000e+01, 5.0000000e-01, -2.5000000e+00</node>
         <node id="5">-1.0000000e+01, 1.5000000e+00, -2.5000000e+00</node>
         <node id="6">-1.0000000e+01, 2.5000000e+00, -2.5000000e+00</node>
         <node id="7">-9.0000000e+00, -2.5000000e+00, -2.5000000e+00</node>
         <node id="8">-9.0000000e+00, -1.5000000e+00, -2.5000000e+00</node>
         <node id="9">-9.0000000e+00, -5.0000000e-01, -2.5000000e+00</node>
         <node id="10">-9.0000000e+00, 5.0000000e-01, -2.5000000e+00</node>
         <node id="11">-9.0000000e+00, 1.5000000e+00, -2.5000000e+00</node>
         <node id="12">-9.0000000e+00, 2.5000000e+00, -2.5000000e+00</node>
         <node id="13">-8.0000000e+00, -2.5000000e+00, -2.5000000e+00</node>
         <node id="14">-8.0000000e+00, -1.5000000e+00, -2.5000000e+00</node>
         <node id="15">-8.0000000e+00, -5.0000000e-01, -2.5000000e+00</node>
         <node id="16">-8.0000000e+00, 5.0000000e-01, -2.5000000e+00</node>
         <node id="17">-8.0000000e+00, 1.5000000e+00, -2.5000000e+00</node>
         <node id="18">-8.0000000e+00, 2.5000000e+00, -2.5000000e+00</node>
         <node id="19">-7.0000000e+00, -2.5000000e+00, -2.5000000e+00</node>
         <node id="20">-7.0000000e+00, -1.5000000e+00, -2.5000000e+00</node>
<!-- ... 736 like lines cut -->
      </Nodes>
      <Elements>
         <hex8 id="1" mat="1">   1,   7,   8,   2,   127,   133,   134,   128</hex8>
         <hex8 id="2" mat="1">   2,   8,   9,   3,   128,   134,   135,   129</hex8>
         <hex8 id="3" mat="1">   3,   9,   10,   4,   129,   135,   136,   130</hex8>
         <hex8 id="4" mat="1">   4,   10,   11,   5,   130,   136,   137,   131</hex8>
         <hex8 id="5" mat="1">   5,   11,   12,   6,   131,   137,   138,   132</hex8>
         <hex8 id="6" mat="1">   7,   13,   14,   8,   133,   139,   140,   134</hex8>
         <hex8 id="7" mat="1">   8,   14,   15,   9,   134,   140,   141,   135</hex8>
         <hex8 id="8" mat="1">   9,   15,   16,   10,   135,   141,   142,   136</hex8>
         <hex8 id="9" mat="1">   10,   16,   17,   11,   136,   142,   143,   137</hex8>
         <hex8 id="10" mat="1">   11,   17,   18,   12,   137,   143,   144,   138</hex8>
         <hex8 id="11" mat="1">   13,   19,   20,   14,   139,   145,   146,   140</hex8>
         <hex8 id="12" mat="1">   14,   20,   21,   15,   140,   146,   147,   141</hex8>
         <hex8 id="13" mat="1">   15,   21,   22,   16,   141,   147,   148,   142</hex8>
         <hex8 id="14" mat="1">   16,   22,   23,   17,   142,   148,   149,   143</hex8>
         <hex8 id="15" mat="1">   17,   23,   24,   18,   143,   149,   150,   144</hex8>
         <hex8 id="16" mat="1">   19,   25,   26,   20,   145,   151,   152,   146</hex8>
         <hex8 id="17" mat="1">   20,   26,   27,   21,   146,   152,   153,   147</hex8>
         <hex8 id="18" mat="1">   21,   27,   28,   22,   147,   153,   154,   148</hex8>
         <hex8 id="19" mat="1">   22,   28,   29,   23,   148,   154,   155,   149</hex8>
         <hex8 id="20" mat="1">   23,   29,   30,   24,   149,   155,   156,   150</hex8>
<!-- ... 480 like lines cut -->
      </Elements>
   </Geometry>
   <Output>
      <plotfile type="febio">
         <var type="displacement"/>
         <var type="stress"/>
         <var type="relative volume"/>
         <var type="shell thickness"/>
      </plotfile>
      <logfile>
         <node_data data="ux;uy;uz" delim=", " file="D:\MATLAB\GIBBON\trunk\data\temp\tempModel_node_out.txt"/>
      </logfile>
   </Output>
   <Boundary>
      <fix>
         <node bc="x" id="1"/>
         <node bc="x" id="2"/>
         <node bc="x" id="3"/>
         <node bc="x" id="4"/>
         <node bc="x" id="5"/>
         <node bc="x" id="6"/>
         <node bc="x" id="127"/>
         <node bc="x" id="128"/>
         <node bc="x" id="129"/>
         <node bc="x" id="130"/>
         <node bc="x" id="131"/>
         <node bc="x" id="132"/>
         <node bc="x" id="253"/>
         <node bc="x" id="254"/>
         <node bc="x" id="255"/>
         <node bc="x" id="256"/>
         <node bc="x" id="257"/>
         <node bc="x" id="258"/>
         <node bc="x" id="379"/>
         <node bc="x" id="380"/>
<!-- ... 16 like lines cut -->
         <node bc="y" id="1"/>
         <node bc="y" id="2"/>
         <node bc="y" id="3"/>
         <node bc="y" id="4"/>
         <node bc="y" id="5"/>
         <node bc="y" id="6"/>
         <node bc="y" id="127"/>
         <node bc="y" id="128"/>
         <node bc="y" id="129"/>
         <node bc="y" id="130"/>
         <node bc="y" id="131"/>
         <node bc="y" id="132"/>
         <node bc="y" id="253"/>
         <node bc="y" id="254"/>
         <node bc="y" id="255"/>
         <node bc="y" id="256"/>
         <node bc="y" id="257"/>
         <node bc="y" id="258"/>
         <node bc="y" id="379"/>
         <node bc="y" id="380"/>
<!-- ... 16 like lines cut -->
         <node bc="z" id="1"/>
         <node bc="z" id="2"/>
         <node bc="z" id="3"/>
         <node bc="z" id="4"/>
         <node bc="z" id="5"/>
         <node bc="z" id="6"/>
         <node bc="z" id="127"/>
         <node bc="z" id="128"/>
         <node bc="z" id="129"/>
         <node bc="z" id="130"/>
         <node bc="z" id="131"/>
         <node bc="z" id="132"/>
         <node bc="z" id="253"/>
         <node bc="z" id="254"/>
         <node bc="z" id="255"/>
         <node bc="z" id="256"/>
         <node bc="z" id="257"/>
         <node bc="z" id="258"/>
         <node bc="z" id="379"/>
         <node bc="z" id="380"/>
<!-- ... 16 like lines cut -->
      </fix>
   </Boundary>
   <Loads>
      <force>
         <node bc="x" id="121" lc="1">0.0000000e+00</node>
         <node bc="x" id="122" lc="1">0.0000000e+00</node>
         <node bc="x" id="123" lc="1">0.0000000e+00</node>
         <node bc="x" id="124" lc="1">0.0000000e+00</node>
         <node bc="x" id="125" lc="1">0.0000000e+00</node>
         <node bc="x" id="126" lc="1">0.0000000e+00</node>
         <node bc="x" id="247" lc="1">0.0000000e+00</node>
         <node bc="x" id="248" lc="1">0.0000000e+00</node>
         <node bc="x" id="249" lc="1">0.0000000e+00</node>
         <node bc="x" id="250" lc="1">0.0000000e+00</node>
         <node bc="x" id="251" lc="1">0.0000000e+00</node>
         <node bc="x" id="252" lc="1">0.0000000e+00</node>
         <node bc="x" id="373" lc="1">0.0000000e+00</node>
         <node bc="x" id="374" lc="1">0.0000000e+00</node>
         <node bc="x" id="375" lc="1">0.0000000e+00</node>
         <node bc="x" id="376" lc="1">0.0000000e+00</node>
         <node bc="x" id="377" lc="1">0.0000000e+00</node>
         <node bc="x" id="378" lc="1">0.0000000e+00</node>
         <node bc="x" id="499" lc="1">0.0000000e+00</node>
         <node bc="x" id="500" lc="1">0.0000000e+00</node>
<!-- ... 16 like lines cut -->
      </force>
      <force>
         <node bc="y" id="121" lc="1">0.0000000e+00</node>
         <node bc="y" id="122" lc="1">0.0000000e+00</node>
         <node bc="y" id="123" lc="1">0.0000000e+00</node>
         <node bc="y" id="124" lc="1">0.0000000e+00</node>
         <node bc="y" id="125" lc="1">0.0000000e+00</node>
         <node bc="y" id="126" lc="1">0.0000000e+00</node>
         <node bc="y" id="247" lc="1">0.0000000e+00</node>
         <node bc="y" id="248" lc="1">0.0000000e+00</node>
         <node bc="y" id="249" lc="1">0.0000000e+00</node>
         <node bc="y" id="250" lc="1">0.0000000e+00</node>
         <node bc="y" id="251" lc="1">0.0000000e+00</node>
         <node bc="y" id="252" lc="1">0.0000000e+00</node>
         <node bc="y" id="373" lc="1">0.0000000e+00</node>
         <node bc="y" id="374" lc="1">0.0000000e+00</node>
         <node bc="y" id="375" lc="1">0.0000000e+00</node>
         <node bc="y" id="376" lc="1">0.0000000e+00</node>
         <node bc="y" id="377" lc="1">0.0000000e+00</node>
         <node bc="y" id="378" lc="1">0.0000000e+00</node>
         <node bc="y" id="499" lc="1">0.0000000e+00</node>
         <node bc="y" id="500" lc="1">0.0000000e+00</node>
<!-- ... 16 like lines cut -->
      </force>
      <force>
         <node bc="z" id="121" lc="1">-2.0000000e-05</node>
         <node bc="z" id="122" lc="1">-2.0000000e-05</node>
         <node bc="z" id="123" lc="1">-2.0000000e-05</node>
         <node bc="z" id="124" lc="1">-2.0000000e-05</node>
         <node bc="z" id="125" lc="1">-2.0000000e-05</node>
         <node bc="z" id="126" lc="1">-2.0000000e-05</node>
         <node bc="z" id="247" lc="1">-2.0000000e-05</node>
         <node bc="z" id="248" lc="1">-2.0000000e-05</node>
         <node bc="z" id="249" lc="1">-2.0000000e-05</node>
         <node bc="z" id="250" lc="1">-2.0000000e-05</node>
         <node bc="z" id="251" lc="1">-2.0000000e-05</node>
         <node bc="z" id="252" lc="1">-2.0000000e-05</node>
         <node bc="z" id="373" lc="1">-2.0000000e-05</node>
         <node bc="z" id="374" lc="1">-2.0000000e-05</node>
         <node bc="z" id="375" lc="1">-2.0000000e-05</node>
         <node bc="z" id="376" lc="1">-2.0000000e-05</node>
         <node bc="z" id="377" lc="1">-2.0000000e-05</node>
         <node bc="z" id="378" lc="1">-2.0000000e-05</node>
         <node bc="z" id="499" lc="1">-2.0000000e-05</node>
         <node bc="z" id="500" lc="1">-2.0000000e-05</node>
<!-- ... 16 like lines cut -->
      </force>
   </Loads>
   <LoadData>
      <loadcurve id="1" type="linear">
         <loadpoint>0.000000, 0.000000</loadpoint>
         <loadpoint>1.000000, 1.000000</loadpoint>
      </loadcurve>
   </LoadData>
</febio_spec>
