<?xml version="1.0" encoding="utf-8"?>
<febio_spec version="2.0"><!--Created using GIBBON, 10-Dec-2014 08:36:57-->
   <Module type="solid"/>
   <Control>
      <time_steps>40.000000</time_steps>
      <step_size>0.025000</step_size>
      <max_refs>25.000000</max_refs>
      <max_ups>0.000000</max_ups>
      <dtol>0.001000</dtol>
      <etol>0.010000</etol>
      <rtol>0.000000</rtol>
      <lstol>0.900000</lstol>
      <analysis type="static"/>
      <time_stepper>
         <dtmin>0.000250</dtmin>
         <dtmax>0.025000</dtmax>
         <max_retries>5.000000</max_retries>
         <opt_iter>10.000000</opt_iter>
         <aggressiveness>1.000000</aggressiveness>
      </time_stepper>
   </Control>
   <Globals>
      <Constants>
         <T>0.0000000e+00</T>
         <R>0.0000000e+00</R>
         <Fc>0.0000000e+00</Fc>
      </Constants>
   </Globals>
   <Material>
      <material id="1" name="gel_mat" type="Mooney-Rivlin">
         <c1>1.0000000e-03</c1>
         <c2>0.0000000e+00</c2>
         <k>1.0000000e+00</k>
      </material>
   </Material>
   <Geometry>
      <Nodes>
         <node id="1">-5.9452334e+01, -2.4915992e+00, -9.4736842e+01</node>
         <node id="2">-5.9452334e+01, -2.4915992e+00, -8.4210526e+01</node>
         <node id="3">-5.9452334e+01, -2.4915992e+00, -7.3684211e+01</node>
         <node id="4">-5.9452334e+01, -2.4915992e+00, -6.3157895e+01</node>
         <node id="5">-5.9452334e+01, -2.4915992e+00, -5.2631579e+01</node>
         <node id="6">-5.9452334e+01, -2.4915992e+00, -4.2105263e+01</node>
         <node id="7">-5.9452334e+01, -2.4915992e+00, -3.1578947e+01</node>
         <node id="8">-5.9452334e+01, -2.4915992e+00, -2.1052632e+01</node>
         <node id="9">-5.9452334e+01, -2.4915992e+00, -1.0526316e+01</node>
         <node id="10">-5.9452334e+01, -2.4915992e+00, 0.0000000e+00</node>
         <node id="11">-5.9452334e+01, 6.4837025e-14, -1.0000000e+02</node>
         <node id="12">-5.9452334e+01, 6.4837025e-14, -8.9473684e+01</node>
         <node id="13">-5.9452334e+01, 6.4837025e-14, -7.8947368e+01</node>
         <node id="14">-5.9452334e+01, 6.4837025e-14, -6.8421053e+01</node>
         <node id="15">-5.9452334e+01, 6.4837025e-14, -5.7894737e+01</node>
         <node id="16">-5.9452334e+01, 6.4837025e-14, -4.7368421e+01</node>
         <node id="17">-5.9452334e+01, 6.4837025e-14, -3.6842105e+01</node>
         <node id="18">-5.9452334e+01, 6.4837025e-14, -2.6315789e+01</node>
         <node id="19">-5.9452334e+01, 6.4837025e-14, -1.5789474e+01</node>
         <node id="20">-5.9452334e+01, 6.4837025e-14, -5.2631579e+00</node>
<!-- ... 7732 like lines cut -->
      </Nodes>
      <Elements mat="1" name="Phantom" type="tet4">
         <elem id="1">   2775,   2907,   4521,   4769</elem>
         <elem id="2">   4955,   3290,   6431,   6995</elem>
         <elem id="3">   601,   640,   559,   660</elem>
         <elem id="4">   1916,   1873,   4297,   6949</elem>
         <elem id="5">   5938,   5126,   7179,   7703</elem>
         <elem id="6">   2755,   4492,   4756,   4888</elem>
         <elem id="7">   2766,   2329,   2817,   3533</elem>
         <elem id="8">   5750,   6258,   7170,   7499</elem>
         <elem id="9">   1368,   1302,   1357,   1413</elem>
         <elem id="10">   2358,   2383,   2412,   2817</elem>
         <elem id="11">   2895,   2713,   3263,   5281</elem>
         <elem id="12">   4761,   2790,   5419,   7634</elem>
         <elem id="13">   6258,   3401,   6424,   7541</elem>
         <elem id="14">   4234,   4427,   5301,   5365</elem>
         <elem id="15">   151,   21,   41,   11</elem>
         <elem id="16">   3848,   4610,   5858,   6121</elem>
         <elem id="17">   5722,   5471,   6551,   6652</elem>
         <elem id="18">   2658,   2639,   2952,   3391</elem>
         <elem id="19">   1240,   1180,   3131,   3312</elem>
         <elem id="20">   2908,   3237,   3999,   4378</elem>
<!-- ... 40668 like lines cut -->
      </Elements>
      <NodeSet name="indRigid">    1,    2,    3,    4,    5,    6,    7,    8,    9,   10,   11,   12,   13,   14,   15,   16,   17,   18,   19,   20,   21,   22,   23,   24,   25,
   26,   27,   28,   29,   30,   31,   32,   33,   34,   35,   36,   37,   38,   39,   40,   41,   42,   43,   44,   45,   46,   47,   48,   49,   50,
   51,   52,   53,   54,   55,   56,   57,   58,   59,   60,   61,   62,   63,   64,   65,   66,   67,   68,   69,   70,   71,   72,   73,   74,   75,
   76,   77,   78,   79,   80,   81,   82,   83,   84,   85,   86,   87,   88,   89,   90,   91,   92,   93,   94,   95,   96,   97,   98,   99,  100,
  101,  102,  103,  104,  105,  106,  107,  108,  109,  110,  111,  112,  113,  114,  115,  116,  117,  118,  119,  120,  121,  122,  123,  124,  125,
  126,  127,  128,  129,  130,  131,  132,  133,  134,  135,  136,  137,  138,  139,  140,  141,  142,  143,  144,  145,  146,  147,  148,  149,  150,
  151,  152,  153,  154,  155,  156,  157,  158,  159,  160,  161,  162,  163,  164,  165,  166,  167,  168,  169,  170,  171,  174,  175,  176,  177,
  178,  179,  180,  181,  182,  183,  184,  185,  186,  187,  188,  189,  190,  191,  192,  193,  194,  196,  198,  200,  201,  202,  203,  204,  205,
  206,  207,  208,  209,  210,  211,  212,  213,  214,  215,  216,  217,  218,  219,  220,  222,  223,  224,  225,  226,  227,  228,  229,  230,  231,
  232,  233,  234,  235,  236,  237,  238,  239,  240,  241,  242,  243,  245,  246,  247,  248,  249,  250,  251,  252,  253,  254,  255,  256,  257,
  258,  259,  260,  261,  262,  263,  264,  265,  270,  271,  272,  273,  275,  276,  277,  278,  279,  280,  281,  282,  283,  284,  285,  286,  287,
  288,  289,  290,  291,  292,  293,  294,  297,  298,  299,  301,  302,  303,  304,  305,  306,  307,  308,  309,  310,  311,  312,  313,  314,  315,
  316,  317,  318,  319,  320,  321,  322,  323,  324,  329,  330,  331,  332,  333,  334,  335,  336,  337,  338,  339,  340,  341,  342,  343,  344,
  345,  346,  347,  348,  350,  351,  353,  355,  356,  357,  358,  359,  362,  363,  364,  365,  366,  367,  368,  369,  370,  371,  372,  373,  374,
  375,  376,  377,  378,  379,  380,  381,  385,  386,  387,  388,  389,  390,  391,  392,  393,  394,  395,  396,  397,  398,  399,  400,  401,  402,
  403,  404,  406,  408,  409,  410,  411,  412,  413,  415,  418,  423,  424,  425,  426,  427,  428,  429,  430,  431,  432,  433,  434,  435,  436,
  437,  438,  439,  440,  441,  442,  444,  445,  447,  448,  449,  451,  453,  454,  456,  458,  459,  460,  461,  462,  463,  464,  465,  466,  467,
  468,  469,  470,  471,  472,  473,  474,  475,  476,  477,  482,  483,  484,  485,  486,  487,  488,  489,  490,  491,  492,  493,  494,  495,  496,
  497,  498,  499,  500,  501,  502,  504,  505,  507,  509,  510,  511,  512,  514,  519,  520,  521,  522,  523,  524,  525,  526,  527,  528,  529,
  530,  531,  532,  533,  534,  535,  536,  537,  538,  539,  540,  543,  546,  547,  548,  549,  551,  552,  553,  559,  560,  561,  562,  563,  564,
  565,  566,  567,  568,  569,  570,  571,  572,  573,  574,  575,  576,  577,  578,  580,  581,  584,  586,  587,  588,  590,  591,  592,  593,  596,
<!-- ... 58 like lines cut -->
 2646, 2647, 2648, 2649, 2650, 2651, 2652, 2653, 2654, 2655, 2656, 2657, 2658, 2659</NodeSet>
      <NodeSet name="indIndentor">  952,  953,  954,  967,  968,  969,  970,  971,  972,  978,  979,  980,  981,  982,  983,  984,  987,  988,  989,  990,  991,  992,  993,  994, 1016,
 1017, 1018, 1019, 1020, 1021, 1022, 1023, 1024, 1025, 1026, 1050, 1051, 1052, 1053, 1054, 1055, 1056, 1057, 1078, 1079, 1080, 1081, 1082, 1083, 1084,
 1085, 1087, 1088, 1089, 1090, 1113, 1114, 1115, 1116, 1117, 1118, 1119, 1120, 1142, 1143, 1144, 1145, 1146, 1147, 1148, 1157, 1158, 1174, 1175, 1176,
 1177, 1198, 1199, 1200, 1201, 1202, 1203, 1225, 1226, 1229, 1230, 1231, 1232, 1233, 1234, 1235, 1236, 1257, 1258, 1277, 1278, 1281, 1282, 1284, 1285,
 1286, 1287, 1288, 1289, 1322, 1323, 1324, 1325, 1326, 1327, 1328, 1329, 1330, 1331, 1332, 1333, 1334, 1370, 1371, 1372, 1373, 1374, 1375, 1377, 1378,
 1379, 1380, 1402, 1403, 1424, 1425, 1426, 1427, 1428, 1429, 1430, 1431, 1434, 1435, 1457, 1458, 1459, 1460, 1461, 1462, 1483, 1484, 1485, 1486, 1500,
 1501, 1512, 1513, 1514, 1515, 1516, 1517, 1518, 1540, 1541, 1542, 1543, 1544, 1545, 1546, 1547, 1570, 1571, 1572, 1573, 1575, 1576, 1577, 1578, 1579,
 1580, 1581, 1582, 1603, 1604, 1605, 1606, 1607, 1608, 1609, 1610, 1634, 1635, 1636, 1637, 1638, 1639, 1640, 1641, 1642, 1643, 1644, 1666, 1667, 1668,
 1669, 1670, 1671, 1673, 1674, 1675, 1677, 1678, 1679, 1680, 1681, 1682, 1686, 1687, 1688, 1689, 1690, 1691, 1705, 1706, 1707</NodeSet>
   </Geometry>
   <Boundary>
      <fix bc="x" set="indRigid"/>
      <fix bc="y" set="indRigid"/>
      <fix bc="z" set="indRigid"/>
      <prescribe bc="x" lc="1" scale="0" set="indIndentor" type="relative"/>
      <prescribe bc="y" lc="1" scale="0" set="indIndentor" type="relative"/>
      <prescribe bc="z" lc="1" scale="-1.500000e+01" set="indIndentor" type="relative"/>
   </Boundary>
   <LoadData>
      <loadcurve id="1" type="linear">
         <loadpoint>0.000000, 0.000000</loadpoint>
         <loadpoint>1.000000, 1.000000</loadpoint>
      </loadcurve>
   </LoadData>
   <Output>
      <plotfile type="febio">
         <var type="displacement"/>
         <var type="stress"/>
         <var type="relative volume"/>
      </plotfile>
      <logfile>
         <node_data data="ux;uy;uz" delim=", " file="D:\MATLAB\GIBBON\trunk\data\temp\tempModel_node_out.txt"/>
      </logfile>
   </Output>
</febio_spec>
