<?xml version="1.0" encoding="utf-8"?>
<febio_spec version="2.0"><!--Created using GIBBON, 23-Sep-2015 08:39:21-->
   <Module type="solid"/>
   <Control>
      <time_steps>25.000000</time_steps>
      <step_size>0.040000</step_size>
      <max_refs>25.000000</max_refs>
      <max_ups>0.000000</max_ups>
      <dtol>0.001000</dtol>
      <etol>0.010000</etol>
      <rtol>0.000000</rtol>
      <lstol>0.900000</lstol>
      <analysis type="static"/>
      <time_stepper>
         <dtmin>0.000100</dtmin>
         <dtmax>0.040000</dtmax>
         <max_retries>5.000000</max_retries>
         <opt_iter>5.000000</opt_iter>
         <aggressiveness>1.000000</aggressiveness>
      </time_stepper>
   </Control>
   <Globals>
      <Constants>
         <T>0.0000000e+00</T>
         <R>0.0000000e+00</R>
         <Fc>0.0000000e+00</Fc>
      </Constants>
   </Globals>
   <Material>
      <material id="1" name="mat_1" type="Ogden">
         <c1>1.0000000e-03</c1>
         <m1>1.2000000e+01</m1>
         <k>1.0000000e+00</k>
      </material>
      <material id="2" name="mat_2" type="Ogden">
         <c1>7.5000000e-04</c1>
         <m1>1.2000000e+01</m1>
         <k>7.5000000e-01</k>
      </material>
   </Material>
   <Geometry>
      <Nodes>
         <node id="1">-6.0000000e+00, -6.0000000e+00, -3.0000000e+00</node>
         <node id="2">-6.0000000e+00, -4.6666667e+00, -3.0000000e+00</node>
         <node id="3">-6.0000000e+00, -3.3333333e+00, -3.0000000e+00</node>
         <node id="4">-6.0000000e+00, -2.0000000e+00, -3.0000000e+00</node>
         <node id="5">-6.0000000e+00, -6.6666667e-01, -3.0000000e+00</node>
         <node id="6">-6.0000000e+00, 6.6666667e-01, -3.0000000e+00</node>
         <node id="7">-6.0000000e+00, 2.0000000e+00, -3.0000000e+00</node>
         <node id="8">-6.0000000e+00, 3.3333333e+00, -3.0000000e+00</node>
         <node id="9">-6.0000000e+00, 4.6666667e+00, -3.0000000e+00</node>
         <node id="10">-6.0000000e+00, 6.0000000e+00, -3.0000000e+00</node>
         <node id="11">-4.6666667e+00, -6.0000000e+00, -3.0000000e+00</node>
         <node id="12">-4.6666667e+00, -4.6666667e+00, -3.0000000e+00</node>
         <node id="13">-4.6666667e+00, -3.3333333e+00, -3.0000000e+00</node>
         <node id="14">-4.6666667e+00, -2.0000000e+00, -3.0000000e+00</node>
         <node id="15">-4.6666667e+00, -6.6666667e-01, -3.0000000e+00</node>
         <node id="16">-4.6666667e+00, 6.6666667e-01, -3.0000000e+00</node>
         <node id="17">-4.6666667e+00, 2.0000000e+00, -3.0000000e+00</node>
         <node id="18">-4.6666667e+00, 3.3333333e+00, -3.0000000e+00</node>
         <node id="19">-4.6666667e+00, 4.6666667e+00, -3.0000000e+00</node>
         <node id="20">-4.6666667e+00, 6.0000000e+00, -3.0000000e+00</node>
<!-- ... 2896 like lines cut -->
      </Nodes>
      <Elements mat="1" name="Block" type="hex8">
         <elem id="1">   1,   11,   12,   2,   101,   111,   112,   102</elem>
         <elem id="2">   2,   12,   13,   3,   102,   112,   113,   103</elem>
         <elem id="3">   3,   13,   14,   4,   103,   113,   114,   104</elem>
         <elem id="4">   4,   14,   15,   5,   104,   114,   115,   105</elem>
         <elem id="5">   5,   15,   16,   6,   105,   115,   116,   106</elem>
         <elem id="6">   6,   16,   17,   7,   106,   116,   117,   107</elem>
         <elem id="7">   7,   17,   18,   8,   107,   117,   118,   108</elem>
         <elem id="8">   8,   18,   19,   9,   108,   118,   119,   109</elem>
         <elem id="9">   9,   19,   20,   10,   109,   119,   120,   110</elem>
         <elem id="10">   11,   21,   22,   12,   111,   121,   122,   112</elem>
         <elem id="11">   12,   22,   23,   13,   112,   122,   123,   113</elem>
         <elem id="12">   13,   23,   24,   14,   113,   123,   124,   114</elem>
         <elem id="13">   14,   24,   25,   15,   114,   124,   125,   115</elem>
         <elem id="14">   15,   25,   26,   16,   115,   125,   126,   116</elem>
         <elem id="15">   16,   26,   27,   17,   116,   126,   127,   117</elem>
         <elem id="16">   17,   27,   28,   18,   117,   127,   128,   118</elem>
         <elem id="17">   18,   28,   29,   19,   118,   128,   129,   119</elem>
         <elem id="18">   19,   29,   30,   20,   119,   129,   130,   120</elem>
         <elem id="19">   21,   31,   32,   22,   121,   131,   132,   122</elem>
         <elem id="20">   22,   32,   33,   23,   122,   132,   133,   123</elem>
<!-- ... 385 like lines cut -->
      </Elements>
      <Elements mat="2" name="Sphere" type="hex8">
         <elem id="406">   602,   611,   610,   601,   988,   997,   996,   987</elem>
         <elem id="407">   682,   683,   602,   601,   1068,   1069,   988,   987</elem>
         <elem id="408">   601,   610,   691,   682,   987,   996,   1077,   1068</elem>
         <elem id="409">   603,   612,   611,   602,   989,   998,   997,   988</elem>
         <elem id="410">   683,   684,   603,   602,   1069,   1070,   989,   988</elem>
         <elem id="411">   604,   613,   612,   603,   990,   999,   998,   989</elem>
         <elem id="412">   684,   685,   604,   603,   1070,   1071,   990,   989</elem>
         <elem id="413">   605,   614,   613,   604,   991,   1000,   999,   990</elem>
         <elem id="414">   685,   686,   605,   604,   1071,   1072,   991,   990</elem>
         <elem id="415">   606,   615,   614,   605,   992,   1001,   1000,   991</elem>
         <elem id="416">   686,   687,   606,   605,   1072,   1073,   992,   991</elem>
         <elem id="417">   607,   616,   615,   606,   993,   1002,   1001,   992</elem>
         <elem id="418">   687,   688,   607,   606,   1073,   1074,   993,   992</elem>
         <elem id="419">   608,   617,   616,   607,   994,   1003,   1002,   993</elem>
         <elem id="420">   688,   689,   608,   607,   1074,   1075,   994,   993</elem>
         <elem id="421">   609,   618,   617,   608,   995,   1004,   1003,   994</elem>
         <elem id="422">   689,   690,   609,   608,   1075,   1076,   995,   994</elem>
         <elem id="423">   618,   609,   690,   692,   1004,   995,   1076,   1078</elem>
         <elem id="424">   611,   620,   619,   610,   997,   1006,   1005,   996</elem>
         <elem id="425">   610,   619,   693,   691,   996,   1005,   1079,   1077</elem>
<!-- ... 1900 like lines cut -->
      </Elements>
      <Surface name="Contact_master">
         <quad4 id="1">   2532,   2541,   2540,   2531</quad4>
         <quad4 id="2">   2612,   2613,   2532,   2531</quad4>
         <quad4 id="3">   2531,   2540,   2621,   2612</quad4>
         <quad4 id="4">   2533,   2542,   2541,   2532</quad4>
         <quad4 id="5">   2613,   2614,   2533,   2532</quad4>
         <quad4 id="6">   2534,   2543,   2542,   2533</quad4>
         <quad4 id="7">   2614,   2615,   2534,   2533</quad4>
         <quad4 id="8">   2535,   2544,   2543,   2534</quad4>
         <quad4 id="9">   2615,   2616,   2535,   2534</quad4>
         <quad4 id="10">   2536,   2545,   2544,   2535</quad4>
         <quad4 id="11">   2616,   2617,   2536,   2535</quad4>
         <quad4 id="12">   2537,   2546,   2545,   2536</quad4>
         <quad4 id="13">   2617,   2618,   2537,   2536</quad4>
         <quad4 id="14">   2538,   2547,   2546,   2537</quad4>
         <quad4 id="15">   2618,   2619,   2538,   2537</quad4>
         <quad4 id="16">   2539,   2548,   2547,   2538</quad4>
         <quad4 id="17">   2619,   2620,   2539,   2538</quad4>
         <quad4 id="18">   2548,   2539,   2620,   2622</quad4>
         <quad4 id="19">   2541,   2550,   2549,   2540</quad4>
         <quad4 id="20">   2540,   2549,   2623,   2621</quad4>
<!-- ... 364 like lines cut -->
      </Surface>
      <Surface name="Contact_slave">
         <quad4 id="1">   501,   511,   512,   502</quad4>
         <quad4 id="2">   502,   512,   513,   503</quad4>
         <quad4 id="3">   503,   513,   514,   504</quad4>
         <quad4 id="4">   504,   514,   515,   505</quad4>
         <quad4 id="5">   505,   515,   516,   506</quad4>
         <quad4 id="6">   506,   516,   517,   507</quad4>
         <quad4 id="7">   507,   517,   518,   508</quad4>
         <quad4 id="8">   508,   518,   519,   509</quad4>
         <quad4 id="9">   509,   519,   520,   510</quad4>
         <quad4 id="10">   511,   521,   522,   512</quad4>
         <quad4 id="11">   512,   522,   523,   513</quad4>
         <quad4 id="12">   513,   523,   524,   514</quad4>
         <quad4 id="13">   514,   524,   525,   515</quad4>
         <quad4 id="14">   515,   525,   526,   516</quad4>
         <quad4 id="15">   516,   526,   527,   517</quad4>
         <quad4 id="16">   517,   527,   528,   518</quad4>
         <quad4 id="17">   518,   528,   529,   519</quad4>
         <quad4 id="18">   519,   529,   530,   520</quad4>
         <quad4 id="19">   521,   531,   532,   522</quad4>
         <quad4 id="20">   522,   532,   533,   523</quad4>
<!-- ... 61 like lines cut -->
      </Surface>
      <NodeSet name="bcRigidList">
         <node id="1"/>
         <node id="2"/>
         <node id="3"/>
         <node id="4"/>
         <node id="5"/>
         <node id="6"/>
         <node id="7"/>
         <node id="8"/>
         <node id="9"/>
         <node id="10"/>
         <node id="11"/>
         <node id="12"/>
         <node id="13"/>
         <node id="14"/>
         <node id="15"/>
         <node id="16"/>
         <node id="17"/>
         <node id="18"/>
         <node id="19"/>
         <node id="20"/>
<!-- ... 80 like lines cut -->
      </NodeSet>
      <NodeSet name="bcPrescribeList">
         <node id="601"/>
         <node id="602"/>
         <node id="603"/>
         <node id="604"/>
         <node id="605"/>
         <node id="606"/>
         <node id="607"/>
         <node id="608"/>
         <node id="609"/>
         <node id="610"/>
         <node id="611"/>
         <node id="612"/>
         <node id="613"/>
         <node id="614"/>
         <node id="615"/>
         <node id="616"/>
         <node id="617"/>
         <node id="618"/>
         <node id="619"/>
         <node id="620"/>
<!-- ... 366 like lines cut -->
      </NodeSet>
   </Geometry>
   <Boundary>
      <fix bc="x" set="bcRigidList"/>
      <fix bc="y" set="bcRigidList"/>
      <fix bc="z" set="bcRigidList"/>
      <fix bc="x" set="bcPrescribeList"/>
      <fix bc="y" set="bcPrescribeList"/>
      <prescribe bc="z" lc="1">
         <node id="601">-1.4333333e+00</node>
         <node id="602">-1.4333333e+00</node>
         <node id="603">-1.4333333e+00</node>
         <node id="604">-1.4333333e+00</node>
         <node id="605">-1.4333333e+00</node>
         <node id="606">-1.4333333e+00</node>
         <node id="607">-1.4333333e+00</node>
         <node id="608">-1.4333333e+00</node>
         <node id="609">-1.4333333e+00</node>
         <node id="610">-1.4333333e+00</node>
         <node id="611">-1.4333333e+00</node>
         <node id="612">-1.4333333e+00</node>
         <node id="613">-1.4333333e+00</node>
         <node id="614">-1.4333333e+00</node>
         <node id="615">-1.4333333e+00</node>
         <node id="616">-1.4333333e+00</node>
         <node id="617">-1.4333333e+00</node>
         <node id="618">-1.4333333e+00</node>
         <node id="619">-1.4333333e+00</node>
         <node id="620">-1.4333333e+00</node>
<!-- ... 366 like lines cut -->
      </prescribe>
   </Boundary>
   <Contact>
      <contact type="sliding_with_gaps">
         <penalty>1.000000e+02</penalty>
         <auto_penalty>1.000000e+00</auto_penalty>
         <two_pass>1.000000e+00</two_pass>
         <laugon>0.000000e+00</laugon>
         <tolerance>1.000000e-01</tolerance>
         <gaptol>0.000000e+00</gaptol>
         <minaug>0.000000e+00</minaug>
         <maxaug>1.000000e+01</maxaug>
         <fric_coeff>0.000000e+00</fric_coeff>
         <fric_penalty>1.000000e+00</fric_penalty>
         <seg_up>0.000000e+00</seg_up>
         <search_tol>1.000000e-02</search_tol>
         <surface set="Contact_master" type="master"/>
         <surface set="Contact_slave" type="slave"/>
      </contact>
   </Contact>
   <LoadData>
      <loadcurve id="1" type="linear">
         <loadpoint>0.000000, 0.000000</loadpoint>
         <loadpoint>1.000000, 1.000000</loadpoint>
      </loadcurve>
   </LoadData>
   <Output>
      <plotfile type="febio">
         <var type="displacement"/>
         <var type="stress"/>
         <var type="relative volume"/>
         <var type="shell thickness"/>
      </plotfile>
      <logfile>
         <node_data data="ux;uy;uz" delim=", " file="tempModel_node_out.txt"/>
      </logfile>
   </Output>
</febio_spec>
