<?xml version="1.0" encoding="utf-8"?>
<!-- 
Created using GIBBON, Kevin M. Moerman, 29-Sep-2014 13:23:45
-->
<febio_spec version="2.0">
   <Module type="solid"/>
   <Control>
      <time_steps>10.000000</time_steps>
      <step_size>0.100000</step_size>
      <max_refs>25.000000</max_refs>
      <max_ups>0.000000</max_ups>
      <dtol>0.001000</dtol>
      <etol>0.010000</etol>
      <rtol>0.000000</rtol>
      <lstol>0.900000</lstol>
      <analysis type="static"/>
      <time_stepper>
         <dtmin>0.000010</dtmin>
         <dtmax>0.100000</dtmax>
         <max_retries>5.000000</max_retries>
         <opt_iter>5.000000</opt_iter>
         <aggressiveness>1.000000</aggressiveness>
      </time_stepper>
   </Control>
   <Globals>
      <Constants>
         <T>0.0000000e+00</T>
         <R>0.0000000e+00</R>
         <Fc>0.0000000e+00</Fc>
      </Constants>
   </Globals>
   <Material>
      <material id="1" name="sphere_1_mat" type="Mooney-Rivlin">
         <c1>1.0000000e-03</c1>
         <c2>0.0000000e+00</c2>
         <k>1.0000000e+00</k>
      </material>
      <material id="2" name="mat_2" type="Mooney-Rivlin">
         <c1>2.0000000e-03</c1>
         <c2>0.0000000e+00</c2>
         <k>2.0000000e+00</k>
      </material>
   </Material>
   <Geometry>
      <Nodes>
         <node id="1">6.4383492e-17, -1.0514622e+00, -1.7013016e+00</node>
         <node id="2">6.4383492e-17, -1.0514622e+00, 1.7013016e+00</node>
         <node id="3">6.4383492e-17, 1.0514622e+00, 1.7013016e+00</node>
         <node id="4">6.4383492e-17, 1.0514622e+00, -1.7013016e+00</node>
         <node id="5">-1.0514622e+00, -1.7013016e+00, 0.0000000e+00</node>
         <node id="6">-1.0514622e+00, 1.7013016e+00, 0.0000000e+00</node>
         <node id="7">1.0514622e+00, 1.7013016e+00, 0.0000000e+00</node>
         <node id="8">1.0514622e+00, -1.7013016e+00, 0.0000000e+00</node>
         <node id="9">-1.7013016e+00, 2.0834936e-16, -1.0514622e+00</node>
         <node id="10">1.7013016e+00, 0.0000000e+00, -1.0514622e+00</node>
         <node id="11">1.7013016e+00, 0.0000000e+00, 1.0514622e+00</node>
         <node id="12">-1.7013016e+00, 2.0834936e-16, 1.0514622e+00</node>
         <node id="13">1.2246468e-16, 0.0000000e+00, -2.0000000e+00</node>
         <node id="14">-6.1803399e-01, -1.6180340e+00, -1.0000000e+00</node>
         <node id="15">6.1803399e-01, -1.6180340e+00, -1.0000000e+00</node>
         <node id="16">-1.0000000e+00, -6.1803399e-01, -1.6180340e+00</node>
         <node id="17">1.0000000e+00, -6.1803399e-01, -1.6180340e+00</node>
         <node id="18">1.2246468e-16, 0.0000000e+00, 2.0000000e+00</node>
         <node id="19">-6.1803399e-01, -1.6180340e+00, 1.0000000e+00</node>
         <node id="20">6.1803399e-01, -1.6180340e+00, 1.0000000e+00</node>
<!-- ... 2006 like lines cut -->
      </Nodes>
      <Elements mat="1" name="Sphere_1" type="tet4">
         <elem id="1">   924,   874,   1428,   1503</elem>
         <elem id="3">   1109,   980,   1183,   1347</elem>
         <elem id="4">   166,   403,   46,   809</elem>
         <elem id="5">   713,   677,   796,   904</elem>
         <elem id="7">   1021,   1057,   1258,   1976</elem>
         <elem id="10">   78,   508,   1190,   1955</elem>
         <elem id="11">   127,   514,   517,   814</elem>
         <elem id="12">   310,   813,   1195,   1624</elem>
         <elem id="14">   937,   1148,   1199,   1599</elem>
         <elem id="17">   466,   63,   230,   1071</elem>
         <elem id="18">   109,   589,   233,   808</elem>
         <elem id="20">   876,   915,   1005,   1749</elem>
         <elem id="21">   454,   817,   1030,   1369</elem>
         <elem id="22">   1049,   921,   1054,   1821</elem>
         <elem id="23">   1068,   376,   1059,   1472</elem>
         <elem id="24">   465,   63,   826,   1268</elem>
         <elem id="25">   629,   329,   1532,   1673</elem>
         <elem id="29">   300,   559,   296,   1642</elem>
         <elem id="30">   1627,   962,   1636,   1982</elem>
         <elem id="31">   1107,   1102,   1120,   1902</elem>
<!-- ... 8064 like lines cut -->
      </Elements>
      <Elements mat="2" name="Sphere_2" type="tet4">
         <elem id="2">   795,   675,   793,   1582</elem>
         <elem id="6">   1362,   1539,   1625,   2020</elem>
         <elem id="8">   684,   739,   1266,   1890</elem>
         <elem id="9">   1355,   1350,   1574,   1622</elem>
         <elem id="13">   718,   649,   716,   1443</elem>
         <elem id="15">   1002,   939,   1126,   1814</elem>
         <elem id="16">   1277,   1556,   1588,   1799</elem>
         <elem id="19">   794,   727,   729,   1002</elem>
         <elem id="26">   939,   931,   1126,   1814</elem>
         <elem id="27">   670,   788,   965,   1660</elem>
         <elem id="28">   725,   756,   726,   1287</elem>
         <elem id="35">   970,   1128,   1296,   1491</elem>
         <elem id="40">   725,   1477,   1567,   1963</elem>
         <elem id="44">   1293,   1146,   1752,   1988</elem>
         <elem id="53">   1293,   936,   1581,   1752</elem>
         <elem id="57">   719,   1016,   1220,   1339</elem>
         <elem id="58">   1115,   1194,   1483,   1546</elem>
         <elem id="60">   1266,   956,   1459,   1992</elem>
         <elem id="64">   702,   1212,   1415,   1462</elem>
         <elem id="69">   1658,   1655,   1892,   1995</elem>
<!-- ... 2550 like lines cut -->
      </Elements>
      <NodeSet name="set_1">   1,   2,   3,   4,   5,   6,   7,   8,   9,  10,  11,  12,  13,  14,  15,  16,  17,  18,  19,  20,  21,  22,  23,  24,  25,
  26,  27,  28,  29,  30,  31,  32,  33,  34,  35,  36,  37,  38,  39,  40,  41,  42,  43,  44,  45,  46,  47,  48,  49,  50,
  51,  52,  53,  54,  55,  56,  57,  58,  59,  60,  61,  62,  63,  64,  65,  66,  67,  68,  69,  70,  71,  72,  73,  74,  75,
  76,  77,  78,  79,  80,  81,  82,  83,  84,  85,  86,  87,  88,  89,  90,  91,  92,  93,  94,  95,  96,  97,  98,  99, 100,
 101, 102, 103, 104, 105, 106, 107, 108, 109, 110, 111, 112, 113, 114, 115, 116, 117, 118, 119, 120, 121, 122, 123, 124, 125,
 126, 127, 128, 129, 130, 131, 132, 133, 134, 135, 136, 137, 138, 139, 140, 141, 142, 143, 144, 145, 146, 147, 148, 149, 150,
 151, 152, 153, 154, 155, 156, 157, 158, 159, 160, 161, 162, 163, 164, 165, 166, 167, 168, 169, 170, 171, 172, 173, 174, 175,
 176, 177, 178, 179, 180, 181, 182, 183, 184, 185, 186, 187, 188, 189, 190, 191, 192, 193, 194, 195, 196, 197, 198, 199, 200,
 201, 202, 203, 204, 205, 206, 207, 208, 209, 210, 211, 212, 213, 214, 215, 216, 217, 218, 219, 220, 221, 222, 223, 224, 225,
 226, 227, 228, 229, 230, 231, 232, 233, 234, 235, 236, 237, 238, 239, 240, 241, 242, 243, 244, 245, 246, 247, 248, 249, 250,
 251, 252, 253, 254, 255, 256, 257, 258, 259, 260, 261, 262, 263, 264, 265, 266, 267, 268, 269, 270, 271, 272, 273, 274, 275,
 276, 277, 278, 279, 280, 281, 282, 283, 284, 285, 286, 287, 288, 289, 290, 291, 292, 293, 294, 295, 296, 297, 298, 299, 300,
 301, 302, 303, 304, 305, 306, 307, 308, 309, 310, 311, 312, 313, 314, 315, 316, 317, 318, 319, 320, 321, 322, 323, 324, 325,
 326, 327, 328, 329, 330, 331, 332, 333, 334, 335, 336, 337, 338, 339, 340, 341, 342, 343, 344, 345, 346, 347, 348, 349, 350,
 351, 352, 353, 354, 355, 356, 357, 358, 359, 360, 361, 362, 363, 364, 365, 366, 367, 368, 369, 370, 371, 372, 373, 374, 375,
 376, 377, 378, 379, 380, 381, 382, 383, 384, 385, 386, 387, 388, 389, 390, 391, 392, 393, 394, 395, 396, 397, 398, 399, 400,
 401, 402, 403, 404, 405, 406, 407, 408, 409, 410, 411, 412, 413, 414, 415, 416, 417, 418, 419, 420, 421, 422, 423, 424, 425,
 426, 427, 428, 429, 430, 431, 432, 433, 434, 435, 436, 437, 438, 439, 440, 441, 442, 443, 444, 445, 446, 447, 448, 449, 450,
 451, 452, 453, 454, 455, 456, 457, 458, 459, 460, 461, 462, 463, 464, 465, 466, 467, 468, 469, 470, 471, 472, 473, 474, 475,
 476, 477, 478, 479, 480, 481, 482, 483, 484, 485, 486, 487, 488, 489, 490, 491, 492, 493, 494, 495, 496, 497, 498, 499, 500,
 501, 502, 503, 504, 505, 506, 507, 508, 509, 510, 511, 512, 513, 514, 515, 516, 517, 518, 519, 520, 521, 522, 523, 524, 525,
<!-- ... 4 like lines cut -->
 626, 627, 628, 629, 630, 631, 632, 633, 634, 635, 636, 637, 638, 639, 640, 641, 642</NodeSet>
   </Geometry>
   <Boundary>
      <prescribe bc="x" lc="1">
         <node id="1">2.4143810e-17</node>
         <node id="2">2.4143810e-17</node>
         <node id="3">-8.0479365e-18</node>
         <node id="4">-8.0479365e-18</node>
         <node id="5">-1.0782598e-01</node>
         <node id="6">-1.5503958e-01</node>
         <node id="7">1.5503958e-01</node>
         <node id="8">1.0782598e-01</node>
         <node id="9">-2.1266270e-01</node>
         <node id="10">2.1266270e-01</node>
         <node id="11">2.1266270e-01</node>
         <node id="12">-2.1266270e-01</node>
         <node id="13">1.5308085e-17</node>
         <node id="14">-1.4808242e-01</node>
         <node id="15">1.4808242e-01</node>
         <node id="16">1.2398983e-01</node>
         <node id="17">-1.2398983e-01</node>
         <node id="18">1.5308085e-17</node>
         <node id="19">-1.4808242e-01</node>
         <node id="20">1.4808242e-01</node>
<!-- ... 622 like lines cut -->
      </prescribe>
      <prescribe bc="y" lc="1">
         <node id="1">-3.9429833e-01</node>
         <node id="2">-3.9429833e-01</node>
         <node id="3">-1.3143278e-01</node>
         <node id="4">-1.3143278e-01</node>
         <node id="5">-1.7446610e-01</node>
         <node id="6">2.5085930e-01</node>
         <node id="7">2.5085930e-01</node>
         <node id="8">-1.7446610e-01</node>
         <node id="9">2.6043670e-17</node>
         <node id="10">0.0000000e+00</node>
         <node id="11">0.0000000e+00</node>
         <node id="12">2.6043670e-17</node>
         <node id="13">0.0000000e+00</node>
         <node id="14">-3.8768482e-01</node>
         <node id="15">-3.8768482e-01</node>
         <node id="16">7.6629928e-02</node>
         <node id="17">7.6629928e-02</node>
         <node id="18">0.0000000e+00</node>
         <node id="19">-3.8768482e-01</node>
         <node id="20">-3.8768482e-01</node>
<!-- ... 622 like lines cut -->
      </prescribe>
      <prescribe bc="z" lc="1">
         <node id="1">0.0000000e+00</node>
         <node id="2">0.0000000e+00</node>
         <node id="3">0.0000000e+00</node>
         <node id="4">0.0000000e+00</node>
         <node id="5">0.0000000e+00</node>
         <node id="6">0.0000000e+00</node>
         <node id="7">0.0000000e+00</node>
         <node id="8">0.0000000e+00</node>
         <node id="9">0.0000000e+00</node>
         <node id="10">0.0000000e+00</node>
         <node id="11">0.0000000e+00</node>
         <node id="12">0.0000000e+00</node>
         <node id="13">0.0000000e+00</node>
         <node id="14">0.0000000e+00</node>
         <node id="15">0.0000000e+00</node>
         <node id="16">0.0000000e+00</node>
         <node id="17">0.0000000e+00</node>
         <node id="18">0.0000000e+00</node>
         <node id="19">0.0000000e+00</node>
         <node id="20">0.0000000e+00</node>
<!-- ... 622 like lines cut -->
      </prescribe>
   </Boundary>
   <LoadData>
      <loadcurve id="1" type="linear">
         <loadpoint>0.000000, 0.000000</loadpoint>
         <loadpoint>1.000000, 1.000000</loadpoint>
      </loadcurve>
   </LoadData>
   <Output>
      <plotfile type="febio">
         <var type="displacement"/>
         <var type="stress"/>
         <var type="relative volume"/>
         <var type="shell thickness"/>
      </plotfile>
      <logfile>
         <node_data data="ux;uy;uz" delim=", " file="/data/MATLAB/GIBBON/trunk/data/temp/tempModel_node_out.txt"/>
      </logfile>
   </Output>
</febio_spec>
