<?xml version="1.0" encoding="utf-8"?>
<febio_spec version="2.0"><!--Created using GIBBON, 02-Jul-2015 21:44:17-->
   <Module type="solid"/>
   <Control>
      <time_steps>10.000000</time_steps>
      <step_size>0.100000</step_size>
      <max_refs>25.000000</max_refs>
      <max_ups>0.000000</max_ups>
      <dtol>0.001000</dtol>
      <etol>0.010000</etol>
      <rtol>0.000000</rtol>
      <lstol>0.900000</lstol>
      <analysis type="static"/>
      <time_stepper>
         <dtmin>0.001000</dtmin>
         <dtmax>0.100000</dtmax>
         <max_retries>5.000000</max_retries>
         <opt_iter>10.000000</opt_iter>
         <aggressiveness>1.000000</aggressiveness>
      </time_stepper>
   </Control>
   <Globals>
      <Constants>
         <T>0.0000000e+00</T>
         <R>0.0000000e+00</R>
         <Fc>0.0000000e+00</Fc>
      </Constants>
   </Globals>
   <Material>
      <material id="1" name="mat_1" type="Ogden">
         <c1>1.0000000e-03</c1>
         <m1>1.2000000e+01</m1>
         <k>1.0000000e+00</k>
      </material>
   </Material>
   <Geometry>
      <Nodes>
         <node id="1">-2.5000000e+00, -2.5000000e+00, -3.0000000e+00</node>
         <node id="2">-2.5000000e+00, -2.5000000e+00, -2.7000000e+00</node>
         <node id="3">-2.5000000e+00, -2.5000000e+00, -2.4000000e+00</node>
         <node id="4">-2.5000000e+00, -2.5000000e+00, -2.1000000e+00</node>
         <node id="5">-2.5000000e+00, -2.5000000e+00, -1.8000000e+00</node>
         <node id="6">-2.5000000e+00, -2.5000000e+00, -1.5000000e+00</node>
         <node id="7">-2.5000000e+00, -2.5000000e+00, -1.2000000e+00</node>
         <node id="8">-2.5000000e+00, -2.5000000e+00, -9.0000000e-01</node>
         <node id="9">-2.5000000e+00, -2.5000000e+00, -6.0000000e-01</node>
         <node id="10">-2.5000000e+00, -2.5000000e+00, -3.0000000e-01</node>
         <node id="11">-2.5000000e+00, -2.5000000e+00, 0.0000000e+00</node>
         <node id="12">-2.5000000e+00, -2.2058824e+00, -3.0000000e+00</node>
         <node id="13">-2.5000000e+00, -2.2058824e+00, -2.7000000e+00</node>
         <node id="14">-2.5000000e+00, -2.2058824e+00, -2.4000000e+00</node>
         <node id="15">-2.5000000e+00, -2.2058824e+00, -2.1000000e+00</node>
         <node id="16">-2.5000000e+00, -2.2058824e+00, -1.8000000e+00</node>
         <node id="17">-2.5000000e+00, -2.2058824e+00, -1.5000000e+00</node>
         <node id="18">-2.5000000e+00, -2.2058824e+00, -1.2000000e+00</node>
         <node id="19">-2.5000000e+00, -2.2058824e+00, -9.0000000e-01</node>
         <node id="20">-2.5000000e+00, -2.2058824e+00, -6.0000000e-01</node>
<!-- ... 4656 like lines cut -->
      </Nodes>
      <Elements mat="1" name="Tissue" type="tet4">
         <elem id="1">   1315,   1397,   1491,   2189</elem>
         <elem id="2">   477,   423,   424,   1582</elem>
         <elem id="3">   2047,   1763,   3156,   3868</elem>
         <elem id="4">   17,   18,   2576,   4594</elem>
         <elem id="5">   2693,   1771,   2739,   3642</elem>
         <elem id="6">   285,   1880,   2879,   3228</elem>
         <elem id="7">   1305,   1304,   1609,   2154</elem>
         <elem id="8">   2006,   2904,   3588,   4622</elem>
         <elem id="9">   1848,   2767,   3232,   3318</elem>
         <elem id="10">   1552,   1573,   1753,   4608</elem>
         <elem id="11">   1613,   2160,   2468,   3813</elem>
         <elem id="12">   2871,   1583,   4333,   4465</elem>
         <elem id="13">   987,   989,   2489,   3904</elem>
         <elem id="14">   427,   1813,   2586,   2653</elem>
         <elem id="15">   3271,   3633,   4126,   4528</elem>
         <elem id="16">   2994,   1717,   3519,   3918</elem>
         <elem id="17">   1455,   1462,   1465,   2356</elem>
         <elem id="18">   1290,   1349,   2373,   4287</elem>
         <elem id="19">   379,   431,   377,   3272</elem>
         <elem id="20">   3161,   1551,   3164,   3747</elem>
<!-- ... 25537 like lines cut -->
      </Elements>
      <Surface name="Pressure_surface">
         <tri3 id="1">   209,   11,   22</tri3>
         <tri3 id="2">   211,   22,   33</tri3>
         <tri3 id="3">   213,   33,   44</tri3>
         <tri3 id="4">   215,   44,   55</tri3>
         <tri3 id="5">   217,   55,   66</tri3>
         <tri3 id="6">   219,   66,   77</tri3>
         <tri3 id="7">   221,   77,   88</tri3>
         <tri3 id="8">   223,   88,   99</tri3>
         <tri3 id="9">   225,   99,   110</tri3>
         <tri3 id="10">   227,   110,   121</tri3>
         <tri3 id="11">   229,   121,   132</tri3>
         <tri3 id="12">   231,   132,   143</tri3>
         <tri3 id="13">   233,   143,   154</tri3>
         <tri3 id="14">   235,   154,   165</tri3>
         <tri3 id="15">   237,   165,   176</tri3>
         <tri3 id="16">   239,   176,   187</tri3>
         <tri3 id="17">   241,   187,   198</tri3>
         <tri3 id="18">   263,   209,   211</tri3>
         <tri3 id="19">   265,   211,   213</tri3>
         <tri3 id="20">   267,   213,   215</tri3>
<!-- ... 558 like lines cut -->
      </Surface>
      <NodeSet name="bcRigidListFull">
         <node id="1"/>
         <node id="12"/>
         <node id="23"/>
         <node id="34"/>
         <node id="45"/>
         <node id="56"/>
         <node id="67"/>
         <node id="78"/>
         <node id="89"/>
         <node id="100"/>
         <node id="111"/>
         <node id="122"/>
         <node id="133"/>
         <node id="144"/>
         <node id="155"/>
         <node id="166"/>
         <node id="177"/>
         <node id="188"/>
         <node id="199"/>
         <node id="210"/>
<!-- ... 466 like lines cut -->
      </NodeSet>
   </Geometry>
   <Boundary>
      <fix bc="x" set="bcRigidListFull"/>
      <fix bc="y" set="bcRigidListFull"/>
      <fix bc="z" set="bcRigidListFull"/>
   </Boundary>
   <Loads>
      <surface_load type="pressure">
         <pressure lc="1">-1.000000e-03</pressure>
         <surface set="Pressure_surface"/>
      </surface_load>
   </Loads>
   <LoadData>
      <loadcurve id="1" type="linear">
         <loadpoint>0.000000, 0.000000</loadpoint>
         <loadpoint>1.000000, 1.000000</loadpoint>
      </loadcurve>
   </LoadData>
   <Output>
      <plotfile type="febio">
         <var type="displacement"/>
         <var type="stress"/>
         <var type="relative volume"/>
      </plotfile>
      <logfile>
         <node_data data="ux;uy;uz" delim=", " file="D:\MATLAB\GIBBON\trunk\data\temp\tempModel_node_out.txt"/>
      </logfile>
   </Output>
</febio_spec>
