<?xml version="1.0" encoding="UTF-8"?>
<febio_spec version="2.5">
    <!--Created using GIBBON, 31-Jan-2018 00:03:03-->
    <Module type="solid"/>
    <Control>
        <analysis type="static"/>
        <title>temp</title>
        <time_steps>10</time_steps>
        <step_size>1.0000000e-01</step_size>
        <dtol>1.0000000e-03</dtol>
        <etol>1.0000000e-02</etol>
        <rtol>0</rtol>
        <lstol>9.0000000e-01</lstol>
        <time_stepper>
            <dtmin>3.3333333e-02</dtmin>
            <dtmax>3.0000000e-01</dtmax>
            <max_retries>5</max_retries>
            <opt_iter>10</opt_iter>
        </time_stepper>
        <max_refs>15</max_refs>
        <max_ups>10</max_ups>
        <optimize_bw>0</optimize_bw>
        <plot_level>PLOT_MAJOR_ITRS</plot_level>
        <plot_range>0, -1</plot_range>
        <plot_stride>1</plot_stride>
        <plot_zero_state>0</plot_zero_state>
        <cmax>100000</cmax>
        <print_level>PRINT_MINOR_ITRS</print_level>
        <min_residual>1.0000000e-20</min_residual>
        <output_level>OUTPUT_MAJOR_ITRS</output_level>
    </Control>
    <Globals>
        <Constants>
            <T>0</T>
            <R>0</R>
            <Fc>0</Fc>
        </Constants>
    </Globals>
    <Material>
        <material id="1" type="Ogden">
            <c1>1.0000000e-03</c1>
            <m1>8</m1>
            <c2>1.0000000e-03</c2>
            <m2>-8</m2>
            <k>1.0000000e-01</k>
        </material>
    </Material>
    <Geometry>
        <Nodes name="nodeSet_all">
            <node id="1">-5, -5, -5</node>
            <node id="2">-5, -4, -5</node>
            <node id="3">-5, -3, -5</node>
            <node id="4">-5, -2, -5</node>
            <node id="5">-5, -1, -5</node>
            <node id="6">-5, 0, -5</node>
            <node id="7">-5, 1, -5</node>
            <node id="8">-5, 2, -5</node>
            <node id="9">-5, 3, -5</node>
            <node id="10">-5, 4, -5</node>
            <node id="11">-5, 5, -5</node>
            <node id="12">-4, -5, -5</node>
            <node id="13">-4, -4, -5</node>
            <node id="14">-4, -3, -5</node>
            <node id="15">-4, -2, -5</node>
            <node id="16">-4, -1, -5</node>
            <node id="17">-4, 0, -5</node>
            <node id="18">-4, 1, -5</node>
            <node id="19">-4, 2, -5</node>
            <node id="20">-4, 3, -5</node>
<!-- ... 1311 like lines cut -->
        </Nodes>
        <Elements mat="1" name="Cube" type="hex8">
            <elem id="1">1, 12, 13, 2, 122, 133, 134, 123</elem>
            <elem id="2">2, 13, 14, 3, 123, 134, 135, 124</elem>
            <elem id="3">3, 14, 15, 4, 124, 135, 136, 125</elem>
            <elem id="4">4, 15, 16, 5, 125, 136, 137, 126</elem>
            <elem id="5">5, 16, 17, 6, 126, 137, 138, 127</elem>
            <elem id="6">6, 17, 18, 7, 127, 138, 139, 128</elem>
            <elem id="7">7, 18, 19, 8, 128, 139, 140, 129</elem>
            <elem id="8">8, 19, 20, 9, 129, 140, 141, 130</elem>
            <elem id="9">9, 20, 21, 10, 130, 141, 142, 131</elem>
            <elem id="10">10, 21, 22, 11, 131, 142, 143, 132</elem>
            <elem id="11">12, 23, 24, 13, 133, 144, 145, 134</elem>
            <elem id="12">13, 24, 25, 14, 134, 145, 146, 135</elem>
            <elem id="13">14, 25, 26, 15, 135, 146, 147, 136</elem>
            <elem id="14">15, 26, 27, 16, 136, 147, 148, 137</elem>
            <elem id="15">16, 27, 28, 17, 137, 148, 149, 138</elem>
            <elem id="16">17, 28, 29, 18, 138, 149, 150, 139</elem>
            <elem id="17">18, 29, 30, 19, 139, 150, 151, 140</elem>
            <elem id="18">19, 30, 31, 20, 140, 151, 152, 141</elem>
            <elem id="19">20, 31, 32, 21, 141, 152, 153, 142</elem>
            <elem id="20">21, 32, 33, 22, 142, 153, 154, 143</elem>
<!-- ... 980 like lines cut -->
        </Elements>
        <NodeSet name="bcSupportList">1, 2, 3, 4, 5, 6, 7, 8, 9, 10, 11, 12, 13, 14, 15, 16, 17, 18, 19, 20, 21, 22, 23, 24, 25, 26, 27, 28, 29, 30, 31, 32, 33, 34, 35, 36, 37, 38, 39, 40, 41, 42, 43, 44, 45, 46, 47, 48, 49, 50, 51, 52, 53, 54, 55, 56, 57, 58, 59, 60, 61, 62, 63, 64, 65, 66, 67, 68, 69, 70, 71, 72, 73, 74, 75, 76, 77, 78, 79, 80, 81, 82, 83, 84, 85, 86, 87, 88, 89, 90, 91, 92, 93,
        <NodeSet name="bcPrescribeList">1211, 1212, 1213, 1214, 1215, 1216, 1217, 1218, 1219, 1220, 1221, 1222, 1223, 1224, 1225, 1226, 1227, 1228, 1229, 1230, 1231, 1232, 1233, 1234, 1235, 1236, 1237, 1238, 1239, 1240, 1241, 1242, 1243, 1244, 1245, 1246, 1247, 1248, 1249, 1250, 1251, 1252, 1253, 1254, 1255, 1256, 1257, 1258, 1259, 1260, 1261, 1262, 1263, 1264, 1265, 1266, 1267, 1268, 1269, 1270, 
    </Geometry>
    <Boundary>
        <fix bc="x" node_set="bcSupportList"/>
        <fix bc="y" node_set="bcSupportList"/>
        <fix bc="z" node_set="bcSupportList"/>
    </Boundary>
    <LoadData>
        <loadcurve id="1" type="linear">
            <point>0, 0</point>
            <point>1, 1</point>
        </loadcurve>
        <loadcurve id="2" type="linear">
            <point>1, 0</point>
            <point>2, 1</point>
        </loadcurve>
        <loadcurve id="3" type="linear">
            <point>2, 0</point>
            <point>3, 1</point>
        </loadcurve>
        <loadcurve id="4" type="linear">
            <point>3, 0</point>
            <point>4, 1</point>
        </loadcurve>
        <loadcurve id="5" type="linear">
            <point>4, 0</point>
            <point>5, 1</point>
        </loadcurve>
    </LoadData>
    <Output>
        <plotfile type="febio">
            <var type="displacement"/>
            <var type="stress"/>
            <var type="strain energy density"/>
            <var type="relative volume"/>
        </plotfile>
        <logfile file="/mnt/data/MATLAB/GIT/GIBBON/data/temp/tempModel.txt">
            <node_data data="ux;uy;uz" delim="," file="tempModel_disp_out.txt">1, 2, 3, 4, 5, 6, 7, 8, 9, 10, 11, 12, 13, 14, 15, 16, 17, 18, 19, 20, 21, 22, 23, 24, 25, 26, 27, 28, 29, 30, 31, 32, 33, 34, 35, 36, 37, 38, 39, 40, 41, 42, 43, 44, 45, 46, 47, 48, 49, 50, 51, 52, 53, 54, 55, 56, 57, 58, 59, 60, 61, 62, 63, 64, 65, 66, 67, 68, 69, 70, 71, 72, 73, 74, 75, 76, 77, 78, 79, 80, 81, 82, 83
            <node_data data="Rx;Ry;Rz" delim="," file="tempModel_force_out.txt">1, 2, 3, 4, 5, 6, 7, 8, 9, 10, 11, 12, 13, 14, 15, 16, 17, 18, 19, 20, 21, 22, 23, 24, 25, 26, 27, 28, 29, 30, 31, 32, 33, 34, 35, 36, 37, 38, 39, 40, 41, 42, 43, 44, 45, 46, 47, 48, 49, 50, 51, 52, 53, 54, 55, 56, 57, 58, 59, 60, 61, 62, 63, 64, 65, 66, 67, 68, 69, 70, 71, 72, 73, 74, 75, 76, 77, 78, 79, 80, 81, 82, 8
        </logfile>
    </Output>
    <Step>
        <Control>
            <analysis type="static"/>
            <title>Cube analysis</title>
            <time_steps>10</time_steps>
            <step_size>1.0000000e-01</step_size>
            <time_stepper>
                <dtmin>1.0000000e-03</dtmin>
                <dtmax>1.0000000e-01</dtmax>
                <max_retries>5</max_retries>
                <opt_iter>6</opt_iter>
            </time_stepper>
            <max_refs>25</max_refs>
            <max_ups>0</max_ups>
        </Control>
        <Boundary>
            <prescribe bc="z" node_set="bcPrescribeList">
                <scale lc="1">1</scale>
                <relative>1</relative>
                <value>3</value>
            </prescribe>
            <prescribe bc="x" node_set="bcPrescribeList">
                <scale lc="1">1</scale>
                <relative>1</relative>
                <value>0</value>
            </prescribe>
            <prescribe bc="y" node_set="bcPrescribeList">
                <scale lc="1">1</scale>
                <relative>1</relative>
                <value>0</value>
            </prescribe>
        </Boundary>
    </Step>
    <Step>
        <Control>
            <analysis type="static"/>
            <title>Cube analysis</title>
            <time_steps>10</time_steps>
            <step_size>1.0000000e-01</step_size>
            <time_stepper>
                <dtmin>1.0000000e-03</dtmin>
                <dtmax>1.0000000e-01</dtmax>
                <max_retries>5</max_retries>
                <opt_iter>6</opt_iter>
            </time_stepper>
            <max_refs>25</max_refs>
            <max_ups>0</max_ups>
        </Control>
        <Boundary>
            <prescribe bc="z" node_set="bcPrescribeList">
                <scale lc="2">1</scale>
                <relative>1</relative>
                <value>-3</value>
            </prescribe>
            <prescribe bc="x" node_set="bcPrescribeList">
                <scale lc="2">1</scale>
                <relative>1</relative>
                <value>0</value>
            </prescribe>
            <prescribe bc="y" node_set="bcPrescribeList">
                <scale lc="2">1</scale>
                <relative>1</relative>
                <value>0</value>
            </prescribe>
        </Boundary>
    </Step>
    <Step>
        <Control>
            <analysis type="static"/>
            <title>Cube analysis</title>
            <time_steps>10</time_steps>
            <step_size>1.0000000e-01</step_size>
            <time_stepper>
                <dtmin>1.0000000e-03</dtmin>
                <dtmax>1.0000000e-01</dtmax>
                <max_retries>5</max_retries>
                <opt_iter>6</opt_iter>
            </time_stepper>
            <max_refs>25</max_refs>
            <max_ups>0</max_ups>
        </Control>
        <Boundary>
            <prescribe bc="z" node_set="bcPrescribeList">
                <scale lc="3">1</scale>
                <relative>1</relative>
                <value>-3</value>
            </prescribe>
            <prescribe bc="x" node_set="bcPrescribeList">
                <scale lc="3">1</scale>
                <relative>1</relative>
                <value>0</value>
            </prescribe>
            <prescribe bc="y" node_set="bcPrescribeList">
                <scale lc="3">1</scale>
                <relative>1</relative>
                <value>0</value>
            </prescribe>
        </Boundary>
    </Step>
    <Step>
        <Control>
            <analysis type="static"/>
            <title>Cube analysis</title>
            <time_steps>10</time_steps>
            <step_size>1.0000000e-01</step_size>
            <time_stepper>
                <dtmin>1.0000000e-03</dtmin>
                <dtmax>1.0000000e-01</dtmax>
                <max_retries>5</max_retries>
                <opt_iter>6</opt_iter>
            </time_stepper>
            <max_refs>25</max_refs>
            <max_ups>0</max_ups>
        </Control>
        <Boundary>
            <prescribe bc="z" node_set="bcPrescribeList">
                <scale lc="4">1</scale>
                <relative>1</relative>
                <value>3</value>
            </prescribe>
            <prescribe bc="x" node_set="bcPrescribeList">
                <scale lc="4">1</scale>
                <relative>1</relative>
                <value>0</value>
            </prescribe>
            <prescribe bc="y" node_set="bcPrescribeList">
                <scale lc="4">1</scale>
                <relative>1</relative>
                <value>0</value>
            </prescribe>
        </Boundary>
    </Step>
    <Step>
        <Control>
            <analysis type="static"/>
            <title>Cube analysis</title>
            <time_steps>10</time_steps>
            <step_size>1.0000000e-01</step_size>
            <time_stepper>
                <dtmin>1.0000000e-03</dtmin>
                <dtmax>1.0000000e-01</dtmax>
                <max_retries>5</max_retries>
                <opt_iter>6</opt_iter>
            </time_stepper>
            <max_refs>25</max_refs>
            <max_ups>0</max_ups>
        </Control>
        <Boundary>
            <prescribe bc="z" node_set="bcPrescribeList">
                <scale lc="5">1</scale>
                <relative>1</relative>
                <value>0</value>
            </prescribe>
            <prescribe bc="x" node_set="bcPrescribeList">
                <scale lc="5">1</scale>
                <relative>1</relative>
                <value>3</value>
            </prescribe>
            <prescribe bc="y" node_set="bcPrescribeList">
                <scale lc="5">1</scale>
                <relative>1</relative>
                <value>0</value>
            </prescribe>
        </Boundary>
    </Step>
</febio_spec>
