<?xml version="1.0" encoding="utf-8"?>
<febio_spec version="2.0"><!--Created using GIBBON, 28-Apr-2017 12:33:40-->
   <Module type="solid"/>
   <Control>
      <time_steps>20.000000</time_steps>
      <step_size>0.050000</step_size>
      <max_refs>25.000000</max_refs>
      <max_ups>0.000000</max_ups>
      <dtol>0.001000</dtol>
      <etol>0.010000</etol>
      <rtol>0.000000</rtol>
      <lstol>0.900000</lstol>
      <analysis type="static"/>
      <time_stepper>
         <dtmin>0.000500</dtmin>
         <dtmax>0.050000</dtmax>
         <max_retries>5.000000</max_retries>
         <opt_iter>5.000000</opt_iter>
      </time_stepper>
   </Control>
   <Globals>
      <Constants>
         <T>0.0000000e+00</T>
         <R>0.0000000e+00</R>
         <Fc>0.0000000e+00</Fc>
      </Constants>
   </Globals>
   <Material>
      <material id="1" name="gel_mat" type="Ogden">
         <c1>1.0000000e-03</c1>
         <m1>2.0000000e+00</m1>
         <k>5.0000000e-02</k>
      </material>
      <material id="2" name="mat_2" type="rigid body">
         <density>1.0000000e+00</density>
         <center_of_mass>0.0000000e+00, 0.0000000e+00, 0.0000000e+00</center_of_mass>
      </material>
   </Material>
   <Geometry>
      <Nodes>
         <node id="1">-5.9031293e+01, -7.4573208e+00, -1.0000000e+02</node>
         <node id="2">-5.9031293e+01, -7.4573208e+00, -6.6666667e+01</node>
         <node id="3">-5.9031293e+01, -7.4573208e+00, -3.3333333e+01</node>
         <node id="4">-5.9031293e+01, -7.4573208e+00, 0.0000000e+00</node>
         <node id="5">-5.9031293e+01, -2.8421709e-14, -8.3333333e+01</node>
         <node id="6">-5.9031293e+01, -2.8421709e-14, -5.0000000e+01</node>
         <node id="7">-5.9031293e+01, -2.8421709e-14, -1.6666667e+01</node>
         <node id="8">-5.9031293e+01, 7.4573208e+00, -1.0000000e+02</node>
         <node id="9">-5.9031293e+01, 7.4573208e+00, -6.6666667e+01</node>
         <node id="10">-5.9031293e+01, 7.4573208e+00, -3.3333333e+01</node>
         <node id="11">-5.9031293e+01, 7.4573208e+00, 0.0000000e+00</node>
         <node id="12">-5.7176560e+01, -1.4680355e+01, -8.3333333e+01</node>
         <node id="13">-5.7176560e+01, -1.4680355e+01, -5.0000000e+01</node>
         <node id="14">-5.7176560e+01, -1.4680355e+01, -1.6666667e+01</node>
         <node id="15">-5.7176560e+01, 1.4680355e+01, -8.3333333e+01</node>
         <node id="16">-5.7176560e+01, 1.4680355e+01, -5.0000000e+01</node>
         <node id="17">-5.7176560e+01, 1.4680355e+01, -1.6666667e+01</node>
         <node id="18">-5.5321827e+01, -2.1903389e+01, -1.0000000e+02</node>
         <node id="19">-5.5321827e+01, -2.1903389e+01, -6.6666667e+01</node>
         <node id="20">-5.5321827e+01, -2.1903389e+01, -3.3333333e+01</node>
<!-- ... 12080 like lines cut -->
      </Nodes>
      <Elements mat="1" name="Gel" type="tet10">
         <elem id="1">   563,   278,   1098,   1264,   3232,   6951,   6953,   8612,   8607,   8616</elem>
         <elem id="2">   410,   535,   735,   1019,   3115,   4109,   4108,   6249,   6252,   6256</elem>
         <elem id="3">   47,   89,   60,   75,   1791,   1792,   1705,   1748,   1794,   1749</elem>
         <elem id="4">   589,   479,   669,   1172,   3347,   3732,   3736,   7680,   7679,   7681</elem>
         <elem id="5">   859,   1113,   1387,   1482,   7103,   9975,   9971,   11111,   11115,   11116</elem>
         <elem id="6">   516,   418,   530,   680,   3045,   3098,   3101,   3793,   3790,   3794</elem>
         <elem id="7">   403,   990,   1338,   1425,   5986,   9417,   9409,   10408,   10414,   10419</elem>
         <elem id="8">   348,   359,   367,   343,   2629,   2657,   2656,   2591,   2628,   2655</elem>
         <elem id="9">   576,   861,   1224,   1532,   4974,   8193,   8190,   11712,   11714,   11715</elem>
         <elem id="10">   402,   634,   791,   838,   3558,   4488,   4483,   4811,   4816,   4817</elem>
         <elem id="11">   1243,   51,   1248,   1301,   8390,   8443,   8449,   9010,   9003,   9011</elem>
         <elem id="12">   744,   810,   924,   1319,   4607,   5469,   5468,   9198,   9199,   9200</elem>
         <elem id="13">   531,   614,   825,   1018,   3481,   4716,   4714,   6238,   6241,   6245</elem>
         <elem id="14">   741,   877,   1286,   1435,   5106,   8849,   8847,   10542,   10545,   10549</elem>
         <elem id="15">   1051,   791,   1137,   1191,   6539,   7339,   7343,   7878,   7874,   7879</elem>
         <elem id="16">   601,   470,   737,   828,   3408,   4120,   4122,   4733,   4731,   4737</elem>
         <elem id="17">   362,   340,   352,   331,   2638,   2605,   2640,   2637,   2566,   2604</elem>
         <elem id="18">   1071,   503,   1157,   1327,   6706,   7539,   7545,   9291,   9284,   9293</elem>
         <elem id="19">   918,   654,   1276,   1410,   5424,   8728,   8730,   10239,   10235,   10242</elem>
         <elem id="20">   281,   304,   326,   766,   2450,   2519,   2518,   4324,   4325,   4326</elem>
<!-- ... 8374 like lines cut -->
      </Elements>
      <Elements mat="2" name="Indentor" type="tri3">
         <elem id="8395">   11932,   11953,   11942</elem>
         <elem id="8396">   11923,   11922,   11915</elem>
         <elem id="8397">   11904,   11923,   11915</elem>
         <elem id="8398">   11896,   11904,   11915</elem>
         <elem id="8399">   11903,   11896,   11915</elem>
         <elem id="8400">   12047,   12049,   12031</elem>
         <elem id="8401">   12006,   12002,   11988</elem>
         <elem id="8402">   12007,   11991,   11992</elem>
         <elem id="8403">   12048,   12027,   12035</elem>
         <elem id="8404">   12002,   11977,   11988</elem>
         <elem id="8405">   12027,   12014,   12035</elem>
         <elem id="8406">   11977,   11973,   11988</elem>
         <elem id="8407">   11973,   11989,   11988</elem>
         <elem id="8408">   11974,   11978,   11992</elem>
         <elem id="8409">   11933,   11928,   11946</elem>
         <elem id="8410">   12053,   12048,   12035</elem>
         <elem id="8411">   12026,   12047,   12031</elem>
         <elem id="8412">   11989,   12006,   11988</elem>
         <elem id="8413">   12003,   12007,   11992</elem>
         <elem id="8414">   11953,   11963,   11942</elem>
<!-- ... 396 like lines cut -->
      </Elements>
      <ElementData>
         <element id="8395">
            <thickness> 1.0000000e-02, 1.0000000e-02, 1.0000000e-02</thickness>
         </element>
         <element id="8396">
            <thickness> 1.0000000e-02, 1.0000000e-02, 1.0000000e-02</thickness>
         </element>
         <element id="8397">
            <thickness> 1.0000000e-02, 1.0000000e-02, 1.0000000e-02</thickness>
         </element>
         <element id="8398">
            <thickness> 1.0000000e-02, 1.0000000e-02, 1.0000000e-02</thickness>
         </element>
         <element id="8399">
            <thickness> 1.0000000e-02, 1.0000000e-02, 1.0000000e-02</thickness>
         </element>
         <element id="8400">
            <thickness> 1.0000000e-02, 1.0000000e-02, 1.0000000e-02</thickness>
         </element>
         <element id="8401">
            <thickness> 1.0000000e-02, 1.0000000e-02, 1.0000000e-02</thickness>
         </element>
         <element id="8402">
            <thickness> 1.0000000e-02, 1.0000000e-02, 1.0000000e-02</thickness>
         </element>
         <element id="8403">
            <thickness> 1.0000000e-02, 1.0000000e-02, 1.0000000e-02</thickness>
         </element>
         <element id="8404">
            <thickness> 1.0000000e-02, 1.0000000e-02, 1.0000000e-02</thickness>
         </element>
         <element id="8405">
            <thickness> 1.0000000e-02, 1.0000000e-02, 1.0000000e-02</thickness>
         </element>
         <element id="8406">
            <thickness> 1.0000000e-02, 1.0000000e-02, 1.0000000e-02</thickness>
         </element>
         <element id="8407">
            <thickness> 1.0000000e-02, 1.0000000e-02, 1.0000000e-02</thickness>
         </element>
         <element id="8408">
            <thickness> 1.0000000e-02, 1.0000000e-02, 1.0000000e-02</thickness>
         </element>
         <element id="8409">
            <thickness> 1.0000000e-02, 1.0000000e-02, 1.0000000e-02</thickness>
         </element>
         <element id="8410">
            <thickness> 1.0000000e-02, 1.0000000e-02, 1.0000000e-02</thickness>
         </element>
         <element id="8411">
            <thickness> 1.0000000e-02, 1.0000000e-02, 1.0000000e-02</thickness>
         </element>
         <element id="8412">
            <thickness> 1.0000000e-02, 1.0000000e-02, 1.0000000e-02</thickness>
         </element>
         <element id="8413">
            <thickness> 1.0000000e-02, 1.0000000e-02, 1.0000000e-02</thickness>
         </element>
         <element id="8414">
            <thickness> 1.0000000e-02, 1.0000000e-02, 1.0000000e-02</thickness>
         </element>
         <element id="8415">
            <thickness> 1.0000000e-02, 1.0000000e-02, 1.0000000e-02</thickness>
         </element>
         <element id="8416">
            <thickness> 1.0000000e-02, 1.0000000e-02, 1.0000000e-02</thickness>
         </element>
         <element id="8417">
            <thickness> 1.0000000e-02, 1.0000000e-02, 1.0000000e-02</thickness>
         </element>
         <element id="8418">
            <thickness> 1.0000000e-02, 1.0000000e-02, 1.0000000e-02</thickness>
         </element>
         <element id="8419">
            <thickness> 1.0000000e-02, 1.0000000e-02, 1.0000000e-02</thickness>
         </element>
         <element id="8420">
            <thickness> 1.0000000e-02, 1.0000000e-02, 1.0000000e-02</thickness>
         </element>
         <element id="8421">
            <thickness> 1.0000000e-02, 1.0000000e-02, 1.0000000e-02</thickness>
         </element>
         <element id="8422">
            <thickness> 1.0000000e-02, 1.0000000e-02, 1.0000000e-02</thickness>
         </element>
         <element id="8423">
            <thickness> 1.0000000e-02, 1.0000000e-02, 1.0000000e-02</thickness>
         </element>
         <element id="8424">
            <thickness> 1.0000000e-02, 1.0000000e-02, 1.0000000e-02</thickness>
         </element>
         <element id="8425">
            <thickness> 1.0000000e-02, 1.0000000e-02, 1.0000000e-02</thickness>
         </element>
         <element id="8426">
            <thickness> 1.0000000e-02, 1.0000000e-02, 1.0000000e-02</thickness>
         </element>
         <element id="8427">
            <thickness> 1.0000000e-02, 1.0000000e-02, 1.0000000e-02</thickness>
         </element>
         <element id="8428">
            <thickness> 1.0000000e-02, 1.0000000e-02, 1.0000000e-02</thickness>
         </element>
         <element id="8429">
            <thickness> 1.0000000e-02, 1.0000000e-02, 1.0000000e-02</thickness>
         </element>
         <element id="8430">
            <thickness> 1.0000000e-02, 1.0000000e-02, 1.0000000e-02</thickness>
         </element>
         <element id="8431">
            <thickness> 1.0000000e-02, 1.0000000e-02, 1.0000000e-02</thickness>
         </element>
         <element id="8432">
            <thickness> 1.0000000e-02, 1.0000000e-02, 1.0000000e-02</thickness>
         </element>
         <element id="8433">
            <thickness> 1.0000000e-02, 1.0000000e-02, 1.0000000e-02</thickness>
         </element>
         <element id="8434">
            <thickness> 1.0000000e-02, 1.0000000e-02, 1.0000000e-02</thickness>
         </element>
         <element id="8435">
            <thickness> 1.0000000e-02, 1.0000000e-02, 1.0000000e-02</thickness>
         </element>
         <element id="8436">
            <thickness> 1.0000000e-02, 1.0000000e-02, 1.0000000e-02</thickness>
         </element>
         <element id="8437">
            <thickness> 1.0000000e-02, 1.0000000e-02, 1.0000000e-02</thickness>
         </element>
         <element id="8438">
            <thickness> 1.0000000e-02, 1.0000000e-02, 1.0000000e-02</thickness>
         </element>
         <element id="8439">
            <thickness> 1.0000000e-02, 1.0000000e-02, 1.0000000e-02</thickness>
         </element>
         <element id="8440">
            <thickness> 1.0000000e-02, 1.0000000e-02, 1.0000000e-02</thickness>
         </element>
         <element id="8441">
            <thickness> 1.0000000e-02, 1.0000000e-02, 1.0000000e-02</thickness>
         </element>
         <element id="8442">
            <thickness> 1.0000000e-02, 1.0000000e-02, 1.0000000e-02</thickness>
         </element>
         <element id="8443">
            <thickness> 1.0000000e-02, 1.0000000e-02, 1.0000000e-02</thickness>
         </element>
         <element id="8444">
            <thickness> 1.0000000e-02, 1.0000000e-02, 1.0000000e-02</thickness>
         </element>
         <element id="8445">
            <thickness> 1.0000000e-02, 1.0000000e-02, 1.0000000e-02</thickness>
         </element>
         <element id="8446">
            <thickness> 1.0000000e-02, 1.0000000e-02, 1.0000000e-02</thickness>
         </element>
         <element id="8447">
            <thickness> 1.0000000e-02, 1.0000000e-02, 1.0000000e-02</thickness>
         </element>
         <element id="8448">
            <thickness> 1.0000000e-02, 1.0000000e-02, 1.0000000e-02</thickness>
         </element>
         <element id="8449">
            <thickness> 1.0000000e-02, 1.0000000e-02, 1.0000000e-02</thickness>
         </element>
         <element id="8450">
            <thickness> 1.0000000e-02, 1.0000000e-02, 1.0000000e-02</thickness>
         </element>
         <element id="8451">
            <thickness> 1.0000000e-02, 1.0000000e-02, 1.0000000e-02</thickness>
         </element>
         <element id="8452">
            <thickness> 1.0000000e-02, 1.0000000e-02, 1.0000000e-02</thickness>
         </element>
         <element id="8453">
            <thickness> 1.0000000e-02, 1.0000000e-02, 1.0000000e-02</thickness>
         </element>
         <element id="8454">
            <thickness> 1.0000000e-02, 1.0000000e-02, 1.0000000e-02</thickness>
         </element>
         <element id="8455">
            <thickness> 1.0000000e-02, 1.0000000e-02, 1.0000000e-02</thickness>
         </element>
         <element id="8456">
            <thickness> 1.0000000e-02, 1.0000000e-02, 1.0000000e-02</thickness>
         </element>
         <element id="8457">
            <thickness> 1.0000000e-02, 1.0000000e-02, 1.0000000e-02</thickness>
         </element>
         <element id="8458">
            <thickness> 1.0000000e-02, 1.0000000e-02, 1.0000000e-02</thickness>
         </element>
         <element id="8459">
            <thickness> 1.0000000e-02, 1.0000000e-02, 1.0000000e-02</thickness>
         </element>
         <element id="8460">
            <thickness> 1.0000000e-02, 1.0000000e-02, 1.0000000e-02</thickness>
         </element>
         <element id="8461">
            <thickness> 1.0000000e-02, 1.0000000e-02, 1.0000000e-02</thickness>
         </element>
         <element id="8462">
            <thickness> 1.0000000e-02, 1.0000000e-02, 1.0000000e-02</thickness>
         </element>
         <element id="8463">
            <thickness> 1.0000000e-02, 1.0000000e-02, 1.0000000e-02</thickness>
         </element>
         <element id="8464">
            <thickness> 1.0000000e-02, 1.0000000e-02, 1.0000000e-02</thickness>
         </element>
         <element id="8465">
            <thickness> 1.0000000e-02, 1.0000000e-02, 1.0000000e-02</thickness>
         </element>
         <element id="8466">
            <thickness> 1.0000000e-02, 1.0000000e-02, 1.0000000e-02</thickness>
         </element>
         <element id="8467">
            <thickness> 1.0000000e-02, 1.0000000e-02, 1.0000000e-02</thickness>
         </element>
         <element id="8468">
            <thickness> 1.0000000e-02, 1.0000000e-02, 1.0000000e-02</thickness>
         </element>
         <element id="8469">
            <thickness> 1.0000000e-02, 1.0000000e-02, 1.0000000e-02</thickness>
         </element>
         <element id="8470">
            <thickness> 1.0000000e-02, 1.0000000e-02, 1.0000000e-02</thickness>
         </element>
         <element id="8471">
            <thickness> 1.0000000e-02, 1.0000000e-02, 1.0000000e-02</thickness>
         </element>
         <element id="8472">
            <thickness> 1.0000000e-02, 1.0000000e-02, 1.0000000e-02</thickness>
         </element>
         <element id="8473">
            <thickness> 1.0000000e-02, 1.0000000e-02, 1.0000000e-02</thickness>
         </element>
         <element id="8474">
            <thickness> 1.0000000e-02, 1.0000000e-02, 1.0000000e-02</thickness>
         </element>
         <element id="8475">
            <thickness> 1.0000000e-02, 1.0000000e-02, 1.0000000e-02</thickness>
         </element>
         <element id="8476">
            <thickness> 1.0000000e-02, 1.0000000e-02, 1.0000000e-02</thickness>
         </element>
         <element id="8477">
            <thickness> 1.0000000e-02, 1.0000000e-02, 1.0000000e-02</thickness>
         </element>
         <element id="8478">
            <thickness> 1.0000000e-02, 1.0000000e-02, 1.0000000e-02</thickness>
         </element>
         <element id="8479">
            <thickness> 1.0000000e-02, 1.0000000e-02, 1.0000000e-02</thickness>
         </element>
         <element id="8480">
            <thickness> 1.0000000e-02, 1.0000000e-02, 1.0000000e-02</thickness>
         </element>
         <element id="8481">
            <thickness> 1.0000000e-02, 1.0000000e-02, 1.0000000e-02</thickness>
         </element>
         <element id="8482">
            <thickness> 1.0000000e-02, 1.0000000e-02, 1.0000000e-02</thickness>
         </element>
         <element id="8483">
            <thickness> 1.0000000e-02, 1.0000000e-02, 1.0000000e-02</thickness>
         </element>
         <element id="8484">
            <thickness> 1.0000000e-02, 1.0000000e-02, 1.0000000e-02</thickness>
         </element>
         <element id="8485">
            <thickness> 1.0000000e-02, 1.0000000e-02, 1.0000000e-02</thickness>
         </element>
         <element id="8486">
            <thickness> 1.0000000e-02, 1.0000000e-02, 1.0000000e-02</thickness>
         </element>
         <element id="8487">
            <thickness> 1.0000000e-02, 1.0000000e-02, 1.0000000e-02</thickness>
         </element>
         <element id="8488">
            <thickness> 1.0000000e-02, 1.0000000e-02, 1.0000000e-02</thickness>
         </element>
         <element id="8489">
            <thickness> 1.0000000e-02, 1.0000000e-02, 1.0000000e-02</thickness>
         </element>
         <element id="8490">
            <thickness> 1.0000000e-02, 1.0000000e-02, 1.0000000e-02</thickness>
         </element>
         <element id="8491">
            <thickness> 1.0000000e-02, 1.0000000e-02, 1.0000000e-02</thickness>
         </element>
         <element id="8492">
            <thickness> 1.0000000e-02, 1.0000000e-02, 1.0000000e-02</thickness>
         </element>
         <element id="8493">
            <thickness> 1.0000000e-02, 1.0000000e-02, 1.0000000e-02</thickness>
         </element>
         <element id="8494">
            <thickness> 1.0000000e-02, 1.0000000e-02, 1.0000000e-02</thickness>
         </element>
         <element id="8495">
            <thickness> 1.0000000e-02, 1.0000000e-02, 1.0000000e-02</thickness>
         </element>
         <element id="8496">
            <thickness> 1.0000000e-02, 1.0000000e-02, 1.0000000e-02</thickness>
         </element>
         <element id="8497">
            <thickness> 1.0000000e-02, 1.0000000e-02, 1.0000000e-02</thickness>
         </element>
         <element id="8498">
            <thickness> 1.0000000e-02, 1.0000000e-02, 1.0000000e-02</thickness>
         </element>
         <element id="8499">
            <thickness> 1.0000000e-02, 1.0000000e-02, 1.0000000e-02</thickness>
         </element>
         <element id="8500">
            <thickness> 1.0000000e-02, 1.0000000e-02, 1.0000000e-02</thickness>
         </element>
         <element id="8501">
            <thickness> 1.0000000e-02, 1.0000000e-02, 1.0000000e-02</thickness>
         </element>
         <element id="8502">
            <thickness> 1.0000000e-02, 1.0000000e-02, 1.0000000e-02</thickness>
         </element>
         <element id="8503">
            <thickness> 1.0000000e-02, 1.0000000e-02, 1.0000000e-02</thickness>
         </element>
         <element id="8504">
            <thickness> 1.0000000e-02, 1.0000000e-02, 1.0000000e-02</thickness>
         </element>
         <element id="8505">
            <thickness> 1.0000000e-02, 1.0000000e-02, 1.0000000e-02</thickness>
         </element>
         <element id="8506">
            <thickness> 1.0000000e-02, 1.0000000e-02, 1.0000000e-02</thickness>
         </element>
         <element id="8507">
            <thickness> 1.0000000e-02, 1.0000000e-02, 1.0000000e-02</thickness>
         </element>
         <element id="8508">
            <thickness> 1.0000000e-02, 1.0000000e-02, 1.0000000e-02</thickness>
         </element>
         <element id="8509">
            <thickness> 1.0000000e-02, 1.0000000e-02, 1.0000000e-02</thickness>
         </element>
         <element id="8510">
            <thickness> 1.0000000e-02, 1.0000000e-02, 1.0000000e-02</thickness>
         </element>
         <element id="8511">
            <thickness> 1.0000000e-02, 1.0000000e-02, 1.0000000e-02</thickness>
         </element>
         <element id="8512">
            <thickness> 1.0000000e-02, 1.0000000e-02, 1.0000000e-02</thickness>
         </element>
         <element id="8513">
            <thickness> 1.0000000e-02, 1.0000000e-02, 1.0000000e-02</thickness>
         </element>
         <element id="8514">
            <thickness> 1.0000000e-02, 1.0000000e-02, 1.0000000e-02</thickness>
         </element>
         <element id="8515">
            <thickness> 1.0000000e-02, 1.0000000e-02, 1.0000000e-02</thickness>
         </element>
         <element id="8516">
            <thickness> 1.0000000e-02, 1.0000000e-02, 1.0000000e-02</thickness>
         </element>
         <element id="8517">
            <thickness> 1.0000000e-02, 1.0000000e-02, 1.0000000e-02</thickness>
         </element>
         <element id="8518">
            <thickness> 1.0000000e-02, 1.0000000e-02, 1.0000000e-02</thickness>
         </element>
         <element id="8519">
            <thickness> 1.0000000e-02, 1.0000000e-02, 1.0000000e-02</thickness>
         </element>
         <element id="8520">
            <thickness> 1.0000000e-02, 1.0000000e-02, 1.0000000e-02</thickness>
         </element>
         <element id="8521">
            <thickness> 1.0000000e-02, 1.0000000e-02, 1.0000000e-02</thickness>
         </element>
         <element id="8522">
            <thickness> 1.0000000e-02, 1.0000000e-02, 1.0000000e-02</thickness>
         </element>
         <element id="8523">
            <thickness> 1.0000000e-02, 1.0000000e-02, 1.0000000e-02</thickness>
         </element>
         <element id="8524">
            <thickness> 1.0000000e-02, 1.0000000e-02, 1.0000000e-02</thickness>
         </element>
         <element id="8525">
            <thickness> 1.0000000e-02, 1.0000000e-02, 1.0000000e-02</thickness>
         </element>
         <element id="8526">
            <thickness> 1.0000000e-02, 1.0000000e-02, 1.0000000e-02</thickness>
         </element>
         <element id="8527">
            <thickness> 1.0000000e-02, 1.0000000e-02, 1.0000000e-02</thickness>
         </element>
         <element id="8528">
            <thickness> 1.0000000e-02, 1.0000000e-02, 1.0000000e-02</thickness>
         </element>
         <element id="8529">
            <thickness> 1.0000000e-02, 1.0000000e-02, 1.0000000e-02</thickness>
         </element>
         <element id="8530">
            <thickness> 1.0000000e-02, 1.0000000e-02, 1.0000000e-02</thickness>
         </element>
         <element id="8531">
            <thickness> 1.0000000e-02, 1.0000000e-02, 1.0000000e-02</thickness>
         </element>
         <element id="8532">
            <thickness> 1.0000000e-02, 1.0000000e-02, 1.0000000e-02</thickness>
         </element>
         <element id="8533">
            <thickness> 1.0000000e-02, 1.0000000e-02, 1.0000000e-02</thickness>
         </element>
         <element id="8534">
            <thickness> 1.0000000e-02, 1.0000000e-02, 1.0000000e-02</thickness>
         </element>
         <element id="8535">
            <thickness> 1.0000000e-02, 1.0000000e-02, 1.0000000e-02</thickness>
         </element>
         <element id="8536">
            <thickness> 1.0000000e-02, 1.0000000e-02, 1.0000000e-02</thickness>
         </element>
         <element id="8537">
            <thickness> 1.0000000e-02, 1.0000000e-02, 1.0000000e-02</thickness>
         </element>
         <element id="8538">
            <thickness> 1.0000000e-02, 1.0000000e-02, 1.0000000e-02</thickness>
         </element>
         <element id="8539">
            <thickness> 1.0000000e-02, 1.0000000e-02, 1.0000000e-02</thickness>
         </element>
         <element id="8540">
            <thickness> 1.0000000e-02, 1.0000000e-02, 1.0000000e-02</thickness>
         </element>
         <element id="8541">
            <thickness> 1.0000000e-02, 1.0000000e-02, 1.0000000e-02</thickness>
         </element>
         <element id="8542">
            <thickness> 1.0000000e-02, 1.0000000e-02, 1.0000000e-02</thickness>
         </element>
         <element id="8543">
            <thickness> 1.0000000e-02, 1.0000000e-02, 1.0000000e-02</thickness>
         </element>
         <element id="8544">
            <thickness> 1.0000000e-02, 1.0000000e-02, 1.0000000e-02</thickness>
         </element>
         <element id="8545">
            <thickness> 1.0000000e-02, 1.0000000e-02, 1.0000000e-02</thickness>
         </element>
         <element id="8546">
            <thickness> 1.0000000e-02, 1.0000000e-02, 1.0000000e-02</thickness>
         </element>
         <element id="8547">
            <thickness> 1.0000000e-02, 1.0000000e-02, 1.0000000e-02</thickness>
         </element>
         <element id="8548">
            <thickness> 1.0000000e-02, 1.0000000e-02, 1.0000000e-02</thickness>
         </element>
         <element id="8549">
            <thickness> 1.0000000e-02, 1.0000000e-02, 1.0000000e-02</thickness>
         </element>
         <element id="8550">
            <thickness> 1.0000000e-02, 1.0000000e-02, 1.0000000e-02</thickness>
         </element>
         <element id="8551">
            <thickness> 1.0000000e-02, 1.0000000e-02, 1.0000000e-02</thickness>
         </element>
         <element id="8552">
            <thickness> 1.0000000e-02, 1.0000000e-02, 1.0000000e-02</thickness>
         </element>
         <element id="8553">
            <thickness> 1.0000000e-02, 1.0000000e-02, 1.0000000e-02</thickness>
         </element>
         <element id="8554">
            <thickness> 1.0000000e-02, 1.0000000e-02, 1.0000000e-02</thickness>
         </element>
         <element id="8555">
            <thickness> 1.0000000e-02, 1.0000000e-02, 1.0000000e-02</thickness>
         </element>
         <element id="8556">
            <thickness> 1.0000000e-02, 1.0000000e-02, 1.0000000e-02</thickness>
         </element>
         <element id="8557">
            <thickness> 1.0000000e-02, 1.0000000e-02, 1.0000000e-02</thickness>
         </element>
         <element id="8558">
            <thickness> 1.0000000e-02, 1.0000000e-02, 1.0000000e-02</thickness>
         </element>
         <element id="8559">
            <thickness> 1.0000000e-02, 1.0000000e-02, 1.0000000e-02</thickness>
         </element>
         <element id="8560">
            <thickness> 1.0000000e-02, 1.0000000e-02, 1.0000000e-02</thickness>
         </element>
         <element id="8561">
            <thickness> 1.0000000e-02, 1.0000000e-02, 1.0000000e-02</thickness>
         </element>
         <element id="8562">
            <thickness> 1.0000000e-02, 1.0000000e-02, 1.0000000e-02</thickness>
         </element>
         <element id="8563">
            <thickness> 1.0000000e-02, 1.0000000e-02, 1.0000000e-02</thickness>
         </element>
         <element id="8564">
            <thickness> 1.0000000e-02, 1.0000000e-02, 1.0000000e-02</thickness>
         </element>
         <element id="8565">
            <thickness> 1.0000000e-02, 1.0000000e-02, 1.0000000e-02</thickness>
         </element>
         <element id="8566">
            <thickness> 1.0000000e-02, 1.0000000e-02, 1.0000000e-02</thickness>
         </element>
         <element id="8567">
            <thickness> 1.0000000e-02, 1.0000000e-02, 1.0000000e-02</thickness>
         </element>
         <element id="8568">
            <thickness> 1.0000000e-02, 1.0000000e-02, 1.0000000e-02</thickness>
         </element>
         <element id="8569">
            <thickness> 1.0000000e-02, 1.0000000e-02, 1.0000000e-02</thickness>
         </element>
         <element id="8570">
            <thickness> 1.0000000e-02, 1.0000000e-02, 1.0000000e-02</thickness>
         </element>
         <element id="8571">
            <thickness> 1.0000000e-02, 1.0000000e-02, 1.0000000e-02</thickness>
         </element>
         <element id="8572">
            <thickness> 1.0000000e-02, 1.0000000e-02, 1.0000000e-02</thickness>
         </element>
         <element id="8573">
            <thickness> 1.0000000e-02, 1.0000000e-02, 1.0000000e-02</thickness>
         </element>
         <element id="8574">
            <thickness> 1.0000000e-02, 1.0000000e-02, 1.0000000e-02</thickness>
         </element>
         <element id="8575">
            <thickness> 1.0000000e-02, 1.0000000e-02, 1.0000000e-02</thickness>
         </element>
         <element id="8576">
            <thickness> 1.0000000e-02, 1.0000000e-02, 1.0000000e-02</thickness>
         </element>
         <element id="8577">
            <thickness> 1.0000000e-02, 1.0000000e-02, 1.0000000e-02</thickness>
         </element>
         <element id="8578">
            <thickness> 1.0000000e-02, 1.0000000e-02, 1.0000000e-02</thickness>
         </element>
         <element id="8579">
            <thickness> 1.0000000e-02, 1.0000000e-02, 1.0000000e-02</thickness>
         </element>
         <element id="8580">
            <thickness> 1.0000000e-02, 1.0000000e-02, 1.0000000e-02</thickness>
         </element>
         <element id="8581">
            <thickness> 1.0000000e-02, 1.0000000e-02, 1.0000000e-02</thickness>
         </element>
         <element id="8582">
            <thickness> 1.0000000e-02, 1.0000000e-02, 1.0000000e-02</thickness>
         </element>
         <element id="8583">
            <thickness> 1.0000000e-02, 1.0000000e-02, 1.0000000e-02</thickness>
         </element>
         <element id="8584">
            <thickness> 1.0000000e-02, 1.0000000e-02, 1.0000000e-02</thickness>
         </element>
         <element id="8585">
            <thickness> 1.0000000e-02, 1.0000000e-02, 1.0000000e-02</thickness>
         </element>
         <element id="8586">
            <thickness> 1.0000000e-02, 1.0000000e-02, 1.0000000e-02</thickness>
         </element>
         <element id="8587">
            <thickness> 1.0000000e-02, 1.0000000e-02, 1.0000000e-02</thickness>
         </element>
         <element id="8588">
            <thickness> 1.0000000e-02, 1.0000000e-02, 1.0000000e-02</thickness>
         </element>
         <element id="8589">
            <thickness> 1.0000000e-02, 1.0000000e-02, 1.0000000e-02</thickness>
         </element>
         <element id="8590">
            <thickness> 1.0000000e-02, 1.0000000e-02, 1.0000000e-02</thickness>
         </element>
         <element id="8591">
            <thickness> 1.0000000e-02, 1.0000000e-02, 1.0000000e-02</thickness>
         </element>
         <element id="8592">
            <thickness> 1.0000000e-02, 1.0000000e-02, 1.0000000e-02</thickness>
         </element>
         <element id="8593">
            <thickness> 1.0000000e-02, 1.0000000e-02, 1.0000000e-02</thickness>
         </element>
         <element id="8594">
            <thickness> 1.0000000e-02, 1.0000000e-02, 1.0000000e-02</thickness>
         </element>
         <element id="8595">
            <thickness> 1.0000000e-02, 1.0000000e-02, 1.0000000e-02</thickness>
         </element>
         <element id="8596">
            <thickness> 1.0000000e-02, 1.0000000e-02, 1.0000000e-02</thickness>
         </element>
         <element id="8597">
            <thickness> 1.0000000e-02, 1.0000000e-02, 1.0000000e-02</thickness>
         </element>
         <element id="8598">
            <thickness> 1.0000000e-02, 1.0000000e-02, 1.0000000e-02</thickness>
         </element>
         <element id="8599">
            <thickness> 1.0000000e-02, 1.0000000e-02, 1.0000000e-02</thickness>
         </element>
         <element id="8600">
            <thickness> 1.0000000e-02, 1.0000000e-02, 1.0000000e-02</thickness>
         </element>
         <element id="8601">
            <thickness> 1.0000000e-02, 1.0000000e-02, 1.0000000e-02</thickness>
         </element>
         <element id="8602">
            <thickness> 1.0000000e-02, 1.0000000e-02, 1.0000000e-02</thickness>
         </element>
         <element id="8603">
            <thickness> 1.0000000e-02, 1.0000000e-02, 1.0000000e-02</thickness>
         </element>
         <element id="8604">
            <thickness> 1.0000000e-02, 1.0000000e-02, 1.0000000e-02</thickness>
         </element>
         <element id="8605">
            <thickness> 1.0000000e-02, 1.0000000e-02, 1.0000000e-02</thickness>
         </element>
         <element id="8606">
            <thickness> 1.0000000e-02, 1.0000000e-02, 1.0000000e-02</thickness>
         </element>
         <element id="8607">
            <thickness> 1.0000000e-02, 1.0000000e-02, 1.0000000e-02</thickness>
         </element>
         <element id="8608">
            <thickness> 1.0000000e-02, 1.0000000e-02, 1.0000000e-02</thickness>
         </element>
         <element id="8609">
            <thickness> 1.0000000e-02, 1.0000000e-02, 1.0000000e-02</thickness>
         </element>
         <element id="8610">
            <thickness> 1.0000000e-02, 1.0000000e-02, 1.0000000e-02</thickness>
         </element>
         <element id="8611">
            <thickness> 1.0000000e-02, 1.0000000e-02, 1.0000000e-02</thickness>
         </element>
         <element id="8612">
            <thickness> 1.0000000e-02, 1.0000000e-02, 1.0000000e-02</thickness>
         </element>
         <element id="8613">
            <thickness> 1.0000000e-02, 1.0000000e-02, 1.0000000e-02</thickness>
         </element>
         <element id="8614">
            <thickness> 1.0000000e-02, 1.0000000e-02, 1.0000000e-02</thickness>
         </element>
         <element id="8615">
            <thickness> 1.0000000e-02, 1.0000000e-02, 1.0000000e-02</thickness>
         </element>
         <element id="8616">
            <thickness> 1.0000000e-02, 1.0000000e-02, 1.0000000e-02</thickness>
         </element>
         <element id="8617">
            <thickness> 1.0000000e-02, 1.0000000e-02, 1.0000000e-02</thickness>
         </element>
         <element id="8618">
            <thickness> 1.0000000e-02, 1.0000000e-02, 1.0000000e-02</thickness>
         </element>
         <element id="8619">
            <thickness> 1.0000000e-02, 1.0000000e-02, 1.0000000e-02</thickness>
         </element>
         <element id="8620">
            <thickness> 1.0000000e-02, 1.0000000e-02, 1.0000000e-02</thickness>
         </element>
         <element id="8621">
            <thickness> 1.0000000e-02, 1.0000000e-02, 1.0000000e-02</thickness>
         </element>
         <element id="8622">
            <thickness> 1.0000000e-02, 1.0000000e-02, 1.0000000e-02</thickness>
         </element>
         <element id="8623">
            <thickness> 1.0000000e-02, 1.0000000e-02, 1.0000000e-02</thickness>
         </element>
         <element id="8624">
            <thickness> 1.0000000e-02, 1.0000000e-02, 1.0000000e-02</thickness>
         </element>
         <element id="8625">
            <thickness> 1.0000000e-02, 1.0000000e-02, 1.0000000e-02</thickness>
         </element>
         <element id="8626">
            <thickness> 1.0000000e-02, 1.0000000e-02, 1.0000000e-02</thickness>
         </element>
         <element id="8627">
            <thickness> 1.0000000e-02, 1.0000000e-02, 1.0000000e-02</thickness>
         </element>
         <element id="8628">
            <thickness> 1.0000000e-02, 1.0000000e-02, 1.0000000e-02</thickness>
         </element>
         <element id="8629">
            <thickness> 1.0000000e-02, 1.0000000e-02, 1.0000000e-02</thickness>
         </element>
         <element id="8630">
            <thickness> 1.0000000e-02, 1.0000000e-02, 1.0000000e-02</thickness>
         </element>
         <element id="8631">
            <thickness> 1.0000000e-02, 1.0000000e-02, 1.0000000e-02</thickness>
         </element>
         <element id="8632">
            <thickness> 1.0000000e-02, 1.0000000e-02, 1.0000000e-02</thickness>
         </element>
         <element id="8633">
            <thickness> 1.0000000e-02, 1.0000000e-02, 1.0000000e-02</thickness>
         </element>
         <element id="8634">
            <thickness> 1.0000000e-02, 1.0000000e-02, 1.0000000e-02</thickness>
         </element>
         <element id="8635">
            <thickness> 1.0000000e-02, 1.0000000e-02, 1.0000000e-02</thickness>
         </element>
         <element id="8636">
            <thickness> 1.0000000e-02, 1.0000000e-02, 1.0000000e-02</thickness>
         </element>
         <element id="8637">
            <thickness> 1.0000000e-02, 1.0000000e-02, 1.0000000e-02</thickness>
         </element>
         <element id="8638">
            <thickness> 1.0000000e-02, 1.0000000e-02, 1.0000000e-02</thickness>
         </element>
         <element id="8639">
            <thickness> 1.0000000e-02, 1.0000000e-02, 1.0000000e-02</thickness>
         </element>
         <element id="8640">
            <thickness> 1.0000000e-02, 1.0000000e-02, 1.0000000e-02</thickness>
         </element>
         <element id="8641">
            <thickness> 1.0000000e-02, 1.0000000e-02, 1.0000000e-02</thickness>
         </element>
         <element id="8642">
            <thickness> 1.0000000e-02, 1.0000000e-02, 1.0000000e-02</thickness>
         </element>
         <element id="8643">
            <thickness> 1.0000000e-02, 1.0000000e-02, 1.0000000e-02</thickness>
         </element>
         <element id="8644">
            <thickness> 1.0000000e-02, 1.0000000e-02, 1.0000000e-02</thickness>
         </element>
         <element id="8645">
            <thickness> 1.0000000e-02, 1.0000000e-02, 1.0000000e-02</thickness>
         </element>
         <element id="8646">
            <thickness> 1.0000000e-02, 1.0000000e-02, 1.0000000e-02</thickness>
         </element>
         <element id="8647">
            <thickness> 1.0000000e-02, 1.0000000e-02, 1.0000000e-02</thickness>
         </element>
         <element id="8648">
            <thickness> 1.0000000e-02, 1.0000000e-02, 1.0000000e-02</thickness>
         </element>
         <element id="8649">
            <thickness> 1.0000000e-02, 1.0000000e-02, 1.0000000e-02</thickness>
         </element>
         <element id="8650">
            <thickness> 1.0000000e-02, 1.0000000e-02, 1.0000000e-02</thickness>
         </element>
         <element id="8651">
            <thickness> 1.0000000e-02, 1.0000000e-02, 1.0000000e-02</thickness>
         </element>
         <element id="8652">
            <thickness> 1.0000000e-02, 1.0000000e-02, 1.0000000e-02</thickness>
         </element>
         <element id="8653">
            <thickness> 1.0000000e-02, 1.0000000e-02, 1.0000000e-02</thickness>
         </element>
         <element id="8654">
            <thickness> 1.0000000e-02, 1.0000000e-02, 1.0000000e-02</thickness>
         </element>
         <element id="8655">
            <thickness> 1.0000000e-02, 1.0000000e-02, 1.0000000e-02</thickness>
         </element>
         <element id="8656">
            <thickness> 1.0000000e-02, 1.0000000e-02, 1.0000000e-02</thickness>
         </element>
         <element id="8657">
            <thickness> 1.0000000e-02, 1.0000000e-02, 1.0000000e-02</thickness>
         </element>
         <element id="8658">
            <thickness> 1.0000000e-02, 1.0000000e-02, 1.0000000e-02</thickness>
         </element>
         <element id="8659">
            <thickness> 1.0000000e-02, 1.0000000e-02, 1.0000000e-02</thickness>
         </element>
         <element id="8660">
            <thickness> 1.0000000e-02, 1.0000000e-02, 1.0000000e-02</thickness>
         </element>
         <element id="8661">
            <thickness> 1.0000000e-02, 1.0000000e-02, 1.0000000e-02</thickness>
         </element>
         <element id="8662">
            <thickness> 1.0000000e-02, 1.0000000e-02, 1.0000000e-02</thickness>
         </element>
         <element id="8663">
            <thickness> 1.0000000e-02, 1.0000000e-02, 1.0000000e-02</thickness>
         </element>
         <element id="8664">
            <thickness> 1.0000000e-02, 1.0000000e-02, 1.0000000e-02</thickness>
         </element>
         <element id="8665">
            <thickness> 1.0000000e-02, 1.0000000e-02, 1.0000000e-02</thickness>
         </element>
         <element id="8666">
            <thickness> 1.0000000e-02, 1.0000000e-02, 1.0000000e-02</thickness>
         </element>
         <element id="8667">
            <thickness> 1.0000000e-02, 1.0000000e-02, 1.0000000e-02</thickness>
         </element>
         <element id="8668">
            <thickness> 1.0000000e-02, 1.0000000e-02, 1.0000000e-02</thickness>
         </element>
         <element id="8669">
            <thickness> 1.0000000e-02, 1.0000000e-02, 1.0000000e-02</thickness>
         </element>
         <element id="8670">
            <thickness> 1.0000000e-02, 1.0000000e-02, 1.0000000e-02</thickness>
         </element>
         <element id="8671">
            <thickness> 1.0000000e-02, 1.0000000e-02, 1.0000000e-02</thickness>
         </element>
         <element id="8672">
            <thickness> 1.0000000e-02, 1.0000000e-02, 1.0000000e-02</thickness>
         </element>
         <element id="8673">
            <thickness> 1.0000000e-02, 1.0000000e-02, 1.0000000e-02</thickness>
         </element>
         <element id="8674">
            <thickness> 1.0000000e-02, 1.0000000e-02, 1.0000000e-02</thickness>
         </element>
         <element id="8675">
            <thickness> 1.0000000e-02, 1.0000000e-02, 1.0000000e-02</thickness>
         </element>
         <element id="8676">
            <thickness> 1.0000000e-02, 1.0000000e-02, 1.0000000e-02</thickness>
         </element>
         <element id="8677">
            <thickness> 1.0000000e-02, 1.0000000e-02, 1.0000000e-02</thickness>
         </element>
         <element id="8678">
            <thickness> 1.0000000e-02, 1.0000000e-02, 1.0000000e-02</thickness>
         </element>
         <element id="8679">
            <thickness> 1.0000000e-02, 1.0000000e-02, 1.0000000e-02</thickness>
         </element>
         <element id="8680">
            <thickness> 1.0000000e-02, 1.0000000e-02, 1.0000000e-02</thickness>
         </element>
         <element id="8681">
            <thickness> 1.0000000e-02, 1.0000000e-02, 1.0000000e-02</thickness>
         </element>
         <element id="8682">
            <thickness> 1.0000000e-02, 1.0000000e-02, 1.0000000e-02</thickness>
         </element>
         <element id="8683">
            <thickness> 1.0000000e-02, 1.0000000e-02, 1.0000000e-02</thickness>
         </element>
         <element id="8684">
            <thickness> 1.0000000e-02, 1.0000000e-02, 1.0000000e-02</thickness>
         </element>
         <element id="8685">
            <thickness> 1.0000000e-02, 1.0000000e-02, 1.0000000e-02</thickness>
         </element>
         <element id="8686">
            <thickness> 1.0000000e-02, 1.0000000e-02, 1.0000000e-02</thickness>
         </element>
         <element id="8687">
            <thickness> 1.0000000e-02, 1.0000000e-02, 1.0000000e-02</thickness>
         </element>
         <element id="8688">
            <thickness> 1.0000000e-02, 1.0000000e-02, 1.0000000e-02</thickness>
         </element>
         <element id="8689">
            <thickness> 1.0000000e-02, 1.0000000e-02, 1.0000000e-02</thickness>
         </element>
         <element id="8690">
            <thickness> 1.0000000e-02, 1.0000000e-02, 1.0000000e-02</thickness>
         </element>
         <element id="8691">
            <thickness> 1.0000000e-02, 1.0000000e-02, 1.0000000e-02</thickness>
         </element>
         <element id="8692">
            <thickness> 1.0000000e-02, 1.0000000e-02, 1.0000000e-02</thickness>
         </element>
         <element id="8693">
            <thickness> 1.0000000e-02, 1.0000000e-02, 1.0000000e-02</thickness>
         </element>
         <element id="8694">
            <thickness> 1.0000000e-02, 1.0000000e-02, 1.0000000e-02</thickness>
         </element>
         <element id="8695">
            <thickness> 1.0000000e-02, 1.0000000e-02, 1.0000000e-02</thickness>
         </element>
         <element id="8696">
            <thickness> 1.0000000e-02, 1.0000000e-02, 1.0000000e-02</thickness>
         </element>
         <element id="8697">
            <thickness> 1.0000000e-02, 1.0000000e-02, 1.0000000e-02</thickness>
         </element>
         <element id="8698">
            <thickness> 1.0000000e-02, 1.0000000e-02, 1.0000000e-02</thickness>
         </element>
         <element id="8699">
            <thickness> 1.0000000e-02, 1.0000000e-02, 1.0000000e-02</thickness>
         </element>
         <element id="8700">
            <thickness> 1.0000000e-02, 1.0000000e-02, 1.0000000e-02</thickness>
         </element>
         <element id="8701">
            <thickness> 1.0000000e-02, 1.0000000e-02, 1.0000000e-02</thickness>
         </element>
         <element id="8702">
            <thickness> 1.0000000e-02, 1.0000000e-02, 1.0000000e-02</thickness>
         </element>
         <element id="8703">
            <thickness> 1.0000000e-02, 1.0000000e-02, 1.0000000e-02</thickness>
         </element>
         <element id="8704">
            <thickness> 1.0000000e-02, 1.0000000e-02, 1.0000000e-02</thickness>
         </element>
         <element id="8705">
            <thickness> 1.0000000e-02, 1.0000000e-02, 1.0000000e-02</thickness>
         </element>
         <element id="8706">
            <thickness> 1.0000000e-02, 1.0000000e-02, 1.0000000e-02</thickness>
         </element>
         <element id="8707">
            <thickness> 1.0000000e-02, 1.0000000e-02, 1.0000000e-02</thickness>
         </element>
         <element id="8708">
            <thickness> 1.0000000e-02, 1.0000000e-02, 1.0000000e-02</thickness>
         </element>
         <element id="8709">
            <thickness> 1.0000000e-02, 1.0000000e-02, 1.0000000e-02</thickness>
         </element>
         <element id="8710">
            <thickness> 1.0000000e-02, 1.0000000e-02, 1.0000000e-02</thickness>
         </element>
         <element id="8711">
            <thickness> 1.0000000e-02, 1.0000000e-02, 1.0000000e-02</thickness>
         </element>
         <element id="8712">
            <thickness> 1.0000000e-02, 1.0000000e-02, 1.0000000e-02</thickness>
         </element>
         <element id="8713">
            <thickness> 1.0000000e-02, 1.0000000e-02, 1.0000000e-02</thickness>
         </element>
         <element id="8714">
            <thickness> 1.0000000e-02, 1.0000000e-02, 1.0000000e-02</thickness>
         </element>
         <element id="8715">
            <thickness> 1.0000000e-02, 1.0000000e-02, 1.0000000e-02</thickness>
         </element>
         <element id="8716">
            <thickness> 1.0000000e-02, 1.0000000e-02, 1.0000000e-02</thickness>
         </element>
         <element id="8717">
            <thickness> 1.0000000e-02, 1.0000000e-02, 1.0000000e-02</thickness>
         </element>
         <element id="8718">
            <thickness> 1.0000000e-02, 1.0000000e-02, 1.0000000e-02</thickness>
         </element>
         <element id="8719">
            <thickness> 1.0000000e-02, 1.0000000e-02, 1.0000000e-02</thickness>
         </element>
         <element id="8720">
            <thickness> 1.0000000e-02, 1.0000000e-02, 1.0000000e-02</thickness>
         </element>
         <element id="8721">
            <thickness> 1.0000000e-02, 1.0000000e-02, 1.0000000e-02</thickness>
         </element>
         <element id="8722">
            <thickness> 1.0000000e-02, 1.0000000e-02, 1.0000000e-02</thickness>
         </element>
         <element id="8723">
            <thickness> 1.0000000e-02, 1.0000000e-02, 1.0000000e-02</thickness>
         </element>
         <element id="8724">
            <thickness> 1.0000000e-02, 1.0000000e-02, 1.0000000e-02</thickness>
         </element>
         <element id="8725">
            <thickness> 1.0000000e-02, 1.0000000e-02, 1.0000000e-02</thickness>
         </element>
         <element id="8726">
            <thickness> 1.0000000e-02, 1.0000000e-02, 1.0000000e-02</thickness>
         </element>
         <element id="8727">
            <thickness> 1.0000000e-02, 1.0000000e-02, 1.0000000e-02</thickness>
         </element>
         <element id="8728">
            <thickness> 1.0000000e-02, 1.0000000e-02, 1.0000000e-02</thickness>
         </element>
         <element id="8729">
            <thickness> 1.0000000e-02, 1.0000000e-02, 1.0000000e-02</thickness>
         </element>
         <element id="8730">
            <thickness> 1.0000000e-02, 1.0000000e-02, 1.0000000e-02</thickness>
         </element>
         <element id="8731">
            <thickness> 1.0000000e-02, 1.0000000e-02, 1.0000000e-02</thickness>
         </element>
         <element id="8732">
            <thickness> 1.0000000e-02, 1.0000000e-02, 1.0000000e-02</thickness>
         </element>
         <element id="8733">
            <thickness> 1.0000000e-02, 1.0000000e-02, 1.0000000e-02</thickness>
         </element>
         <element id="8734">
            <thickness> 1.0000000e-02, 1.0000000e-02, 1.0000000e-02</thickness>
         </element>
         <element id="8735">
            <thickness> 1.0000000e-02, 1.0000000e-02, 1.0000000e-02</thickness>
         </element>
         <element id="8736">
            <thickness> 1.0000000e-02, 1.0000000e-02, 1.0000000e-02</thickness>
         </element>
         <element id="8737">
            <thickness> 1.0000000e-02, 1.0000000e-02, 1.0000000e-02</thickness>
         </element>
         <element id="8738">
            <thickness> 1.0000000e-02, 1.0000000e-02, 1.0000000e-02</thickness>
         </element>
         <element id="8739">
            <thickness> 1.0000000e-02, 1.0000000e-02, 1.0000000e-02</thickness>
         </element>
         <element id="8740">
            <thickness> 1.0000000e-02, 1.0000000e-02, 1.0000000e-02</thickness>
         </element>
         <element id="8741">
            <thickness> 1.0000000e-02, 1.0000000e-02, 1.0000000e-02</thickness>
         </element>
         <element id="8742">
            <thickness> 1.0000000e-02, 1.0000000e-02, 1.0000000e-02</thickness>
         </element>
         <element id="8743">
            <thickness> 1.0000000e-02, 1.0000000e-02, 1.0000000e-02</thickness>
         </element>
         <element id="8744">
            <thickness> 1.0000000e-02, 1.0000000e-02, 1.0000000e-02</thickness>
         </element>
         <element id="8745">
            <thickness> 1.0000000e-02, 1.0000000e-02, 1.0000000e-02</thickness>
         </element>
         <element id="8746">
            <thickness> 1.0000000e-02, 1.0000000e-02, 1.0000000e-02</thickness>
         </element>
         <element id="8747">
            <thickness> 1.0000000e-02, 1.0000000e-02, 1.0000000e-02</thickness>
         </element>
         <element id="8748">
            <thickness> 1.0000000e-02, 1.0000000e-02, 1.0000000e-02</thickness>
         </element>
         <element id="8749">
            <thickness> 1.0000000e-02, 1.0000000e-02, 1.0000000e-02</thickness>
         </element>
         <element id="8750">
            <thickness> 1.0000000e-02, 1.0000000e-02, 1.0000000e-02</thickness>
         </element>
         <element id="8751">
            <thickness> 1.0000000e-02, 1.0000000e-02, 1.0000000e-02</thickness>
         </element>
         <element id="8752">
            <thickness> 1.0000000e-02, 1.0000000e-02, 1.0000000e-02</thickness>
         </element>
         <element id="8753">
            <thickness> 1.0000000e-02, 1.0000000e-02, 1.0000000e-02</thickness>
         </element>
         <element id="8754">
            <thickness> 1.0000000e-02, 1.0000000e-02, 1.0000000e-02</thickness>
         </element>
         <element id="8755">
            <thickness> 1.0000000e-02, 1.0000000e-02, 1.0000000e-02</thickness>
         </element>
         <element id="8756">
            <thickness> 1.0000000e-02, 1.0000000e-02, 1.0000000e-02</thickness>
         </element>
         <element id="8757">
            <thickness> 1.0000000e-02, 1.0000000e-02, 1.0000000e-02</thickness>
         </element>
         <element id="8758">
            <thickness> 1.0000000e-02, 1.0000000e-02, 1.0000000e-02</thickness>
         </element>
         <element id="8759">
            <thickness> 1.0000000e-02, 1.0000000e-02, 1.0000000e-02</thickness>
         </element>
         <element id="8760">
            <thickness> 1.0000000e-02, 1.0000000e-02, 1.0000000e-02</thickness>
         </element>
         <element id="8761">
            <thickness> 1.0000000e-02, 1.0000000e-02, 1.0000000e-02</thickness>
         </element>
         <element id="8762">
            <thickness> 1.0000000e-02, 1.0000000e-02, 1.0000000e-02</thickness>
         </element>
         <element id="8763">
            <thickness> 1.0000000e-02, 1.0000000e-02, 1.0000000e-02</thickness>
         </element>
         <element id="8764">
            <thickness> 1.0000000e-02, 1.0000000e-02, 1.0000000e-02</thickness>
         </element>
         <element id="8765">
            <thickness> 1.0000000e-02, 1.0000000e-02, 1.0000000e-02</thickness>
         </element>
         <element id="8766">
            <thickness> 1.0000000e-02, 1.0000000e-02, 1.0000000e-02</thickness>
         </element>
         <element id="8767">
            <thickness> 1.0000000e-02, 1.0000000e-02, 1.0000000e-02</thickness>
         </element>
         <element id="8768">
            <thickness> 1.0000000e-02, 1.0000000e-02, 1.0000000e-02</thickness>
         </element>
         <element id="8769">
            <thickness> 1.0000000e-02, 1.0000000e-02, 1.0000000e-02</thickness>
         </element>
         <element id="8770">
            <thickness> 1.0000000e-02, 1.0000000e-02, 1.0000000e-02</thickness>
         </element>
         <element id="8771">
            <thickness> 1.0000000e-02, 1.0000000e-02, 1.0000000e-02</thickness>
         </element>
         <element id="8772">
            <thickness> 1.0000000e-02, 1.0000000e-02, 1.0000000e-02</thickness>
         </element>
         <element id="8773">
            <thickness> 1.0000000e-02, 1.0000000e-02, 1.0000000e-02</thickness>
         </element>
         <element id="8774">
            <thickness> 1.0000000e-02, 1.0000000e-02, 1.0000000e-02</thickness>
         </element>
         <element id="8775">
            <thickness> 1.0000000e-02, 1.0000000e-02, 1.0000000e-02</thickness>
         </element>
         <element id="8776">
            <thickness> 1.0000000e-02, 1.0000000e-02, 1.0000000e-02</thickness>
         </element>
         <element id="8777">
            <thickness> 1.0000000e-02, 1.0000000e-02, 1.0000000e-02</thickness>
         </element>
         <element id="8778">
            <thickness> 1.0000000e-02, 1.0000000e-02, 1.0000000e-02</thickness>
         </element>
         <element id="8779">
            <thickness> 1.0000000e-02, 1.0000000e-02, 1.0000000e-02</thickness>
         </element>
         <element id="8780">
            <thickness> 1.0000000e-02, 1.0000000e-02, 1.0000000e-02</thickness>
         </element>
         <element id="8781">
            <thickness> 1.0000000e-02, 1.0000000e-02, 1.0000000e-02</thickness>
         </element>
         <element id="8782">
            <thickness> 1.0000000e-02, 1.0000000e-02, 1.0000000e-02</thickness>
         </element>
         <element id="8783">
            <thickness> 1.0000000e-02, 1.0000000e-02, 1.0000000e-02</thickness>
         </element>
         <element id="8784">
            <thickness> 1.0000000e-02, 1.0000000e-02, 1.0000000e-02</thickness>
         </element>
         <element id="8785">
            <thickness> 1.0000000e-02, 1.0000000e-02, 1.0000000e-02</thickness>
         </element>
         <element id="8786">
            <thickness> 1.0000000e-02, 1.0000000e-02, 1.0000000e-02</thickness>
         </element>
         <element id="8787">
            <thickness> 1.0000000e-02, 1.0000000e-02, 1.0000000e-02</thickness>
         </element>
         <element id="8788">
            <thickness> 1.0000000e-02, 1.0000000e-02, 1.0000000e-02</thickness>
         </element>
         <element id="8789">
            <thickness> 1.0000000e-02, 1.0000000e-02, 1.0000000e-02</thickness>
         </element>
         <element id="8790">
            <thickness> 1.0000000e-02, 1.0000000e-02, 1.0000000e-02</thickness>
         </element>
         <element id="8791">
            <thickness> 1.0000000e-02, 1.0000000e-02, 1.0000000e-02</thickness>
         </element>
         <element id="8792">
            <thickness> 1.0000000e-02, 1.0000000e-02, 1.0000000e-02</thickness>
         </element>
         <element id="8793">
            <thickness> 1.0000000e-02, 1.0000000e-02, 1.0000000e-02</thickness>
         </element>
         <element id="8794">
            <thickness> 1.0000000e-02, 1.0000000e-02, 1.0000000e-02</thickness>
         </element>
         <element id="8795">
            <thickness> 1.0000000e-02, 1.0000000e-02, 1.0000000e-02</thickness>
         </element>
         <element id="8796">
            <thickness> 1.0000000e-02, 1.0000000e-02, 1.0000000e-02</thickness>
         </element>
         <element id="8797">
            <thickness> 1.0000000e-02, 1.0000000e-02, 1.0000000e-02</thickness>
         </element>
         <element id="8798">
            <thickness> 1.0000000e-02, 1.0000000e-02, 1.0000000e-02</thickness>
         </element>
         <element id="8799">
            <thickness> 1.0000000e-02, 1.0000000e-02, 1.0000000e-02</thickness>
         </element>
         <element id="8800">
            <thickness> 1.0000000e-02, 1.0000000e-02, 1.0000000e-02</thickness>
         </element>
         <element id="8801">
            <thickness> 1.0000000e-02, 1.0000000e-02, 1.0000000e-02</thickness>
         </element>
         <element id="8802">
            <thickness> 1.0000000e-02, 1.0000000e-02, 1.0000000e-02</thickness>
         </element>
         <element id="8803">
            <thickness> 1.0000000e-02, 1.0000000e-02, 1.0000000e-02</thickness>
         </element>
         <element id="8804">
            <thickness> 1.0000000e-02, 1.0000000e-02, 1.0000000e-02</thickness>
         </element>
         <element id="8805">
            <thickness> 1.0000000e-02, 1.0000000e-02, 1.0000000e-02</thickness>
         </element>
         <element id="8806">
            <thickness> 1.0000000e-02, 1.0000000e-02, 1.0000000e-02</thickness>
         </element>
         <element id="8807">
            <thickness> 1.0000000e-02, 1.0000000e-02, 1.0000000e-02</thickness>
         </element>
         <element id="8808">
            <thickness> 1.0000000e-02, 1.0000000e-02, 1.0000000e-02</thickness>
         </element>
         <element id="8809">
            <thickness> 1.0000000e-02, 1.0000000e-02, 1.0000000e-02</thickness>
         </element>
         <element id="8810">
            <thickness> 1.0000000e-02, 1.0000000e-02, 1.0000000e-02</thickness>
         </element>
      </ElementData>
      <Surface name="Contact_master_indentor">
         <tri3 id="1">   11932,   11953,   11942</tri3>
         <tri3 id="2">   11923,   11922,   11915</tri3>
         <tri3 id="3">   11904,   11923,   11915</tri3>
         <tri3 id="4">   11896,   11904,   11915</tri3>
         <tri3 id="5">   11903,   11896,   11915</tri3>
         <tri3 id="6">   12047,   12049,   12031</tri3>
         <tri3 id="7">   12006,   12002,   11988</tri3>
         <tri3 id="8">   12007,   11991,   11992</tri3>
         <tri3 id="9">   12048,   12027,   12035</tri3>
         <tri3 id="10">   12002,   11977,   11988</tri3>
         <tri3 id="11">   12027,   12014,   12035</tri3>
         <tri3 id="12">   11977,   11973,   11988</tri3>
         <tri3 id="13">   11973,   11989,   11988</tri3>
         <tri3 id="14">   11974,   11978,   11992</tri3>
         <tri3 id="15">   11933,   11928,   11946</tri3>
         <tri3 id="16">   12053,   12048,   12035</tri3>
         <tri3 id="17">   12026,   12047,   12031</tri3>
         <tri3 id="18">   11989,   12006,   11988</tri3>
         <tri3 id="19">   12003,   12007,   11992</tri3>
         <tri3 id="20">   11953,   11963,   11942</tri3>
<!-- ... 396 like lines cut -->
      </Surface>
      <Surface name="Contact_slave_gel">
         <tri6 id="1">   4,   1560,   11,   1624,   33,   1623</tri6>
         <tri6 id="2">   55,   1691,   21,   1652,   43,   1693</tri6>
         <tri6 id="3">   43,   1652,   21,   1588,   4,   1651</tri6>
         <tri6 id="4">   51,   1679,   41,   1733,   70,   1734</tri6>
         <tri6 id="5">   241,   2394,   289,   2396,   279,   2367</tri6>
         <tri6 id="6">   309,   2463,   255,   2380,   283,   2464</tri6>
         <tri6 id="7">   351,   2599,   324,   2514,   314,   2598</tri6>
         <tri6 id="8">   366,   2775,   398,   2774,   357,   2653</tri6>
         <tri6 id="9">   174,   2172,   216,   2171,   150,   2044</tri6>
         <tri6 id="10">   37,   1762,   79,   1764,   59,   1702</tri6>
         <tri6 id="11">   37,   1634,   21,   1691,   55,   1692</tri6>
         <tri6 id="12">   59,   1862,   113,   1864,   95,   1809</tri6>
         <tri6 id="13">   241,   2249,   216,   2172,   174,   2247</tri6>
         <tri6 id="14">   241,   2367,   279,   2366,   216,   2249</tri6>
         <tri6 id="15">   289,   2480,   314,   2514,   324,   2512</tri6>
         <tri6 id="16">   113,   1972,   150,   1971,   95,   1864</tri6>
         <tri6 id="17">   174,   2044,   150,   1972,   113,   2042</tri6>
         <tri6 id="18">   79,   1762,   37,   1692,   55,   1763</tri6>
         <tri6 id="19">   113,   1862,   59,   1764,   79,   1863</tri6>
         <tri6 id="20">   33,   1653,   43,   1651,   4,   1623</tri6>
<!-- ... 353 like lines cut -->
      </Surface>
      <NodeSet name="indBC_fix">
         <node id="1"/>
         <node id="2"/>
         <node id="3"/>
         <node id="4"/>
         <node id="5"/>
         <node id="6"/>
         <node id="7"/>
         <node id="8"/>
         <node id="9"/>
         <node id="10"/>
         <node id="11"/>
         <node id="12"/>
         <node id="13"/>
         <node id="14"/>
         <node id="15"/>
         <node id="16"/>
         <node id="17"/>
         <node id="18"/>
         <node id="19"/>
         <node id="20"/>
<!-- ... 844 like lines cut -->
      </NodeSet>
   </Geometry>
   <Boundary>
      <fix bc="x" set="indBC_fix"/>
      <fix bc="y" set="indBC_fix"/>
      <fix bc="z" set="indBC_fix"/>
   </Boundary>
   <Contact>
      <contact type="sticky">
         <laugon>0.000000e+00</laugon>
         <tolerance>1.000000e-01</tolerance>
         <penalty>5.000000e+01</penalty>
         <minaug>0.000000e+00</minaug>
         <maxaug>1.000000e+01</maxaug>
         <search_tolerance>1.000000e-02</search_tolerance>
         <max_traction>0.000000e+00</max_traction>
         <snap_tol>1.000000e-02</snap_tol>
         <surface set="Contact_master_indentor" type="master"/>
         <surface set="Contact_slave_gel" type="slave"/>
      </contact>
   </Contact>
   <Constraints>
      <rigid_body mat="2">
         <fixed bc="Rx"/>
         <fixed bc="Ry"/>
         <fixed bc="Rz"/>
         <prescribed bc="x" lc="1">0.0000000e+00</prescribed>
         <prescribed bc="y" lc="1">0.0000000e+00</prescribed>
         <prescribed bc="z" lc="1">-1.5100000e+01</prescribed>
      </rigid_body>
   </Constraints>
   <LoadData>
      <loadcurve id="1" type="linear">
         <loadpoint>0.000000, 0.000000</loadpoint>
         <loadpoint>1.000000, 1.000000</loadpoint>
      </loadcurve>
   </LoadData>
   <Output>
      <plotfile type="febio">
         <var type="displacement"/>
         <var type="stress"/>
         <var type="relative volume"/>
      </plotfile>
      <logfile>
         <node_data data="ux;uy;uz" delim=", " file="tempModel1_node_out.txt"/>
      </logfile>
   </Output>
</febio_spec>
