<?xml version="1.0" encoding="utf-8"?>
<febio_spec version="2.0"><!--Created using GIBBON, 13-May-2016 14:07:38-->
   <Module type="solid"/>
   <Control>
      <time_steps>10.000000</time_steps>
      <step_size>0.100000</step_size>
      <max_refs>25.000000</max_refs>
      <max_ups>0.000000</max_ups>
      <dtol>0.001000</dtol>
      <etol>0.010000</etol>
      <rtol>0.000000</rtol>
      <lstol>0.900000</lstol>
      <analysis type="static"/>
      <time_stepper>
         <dtmin>0.000010</dtmin>
         <dtmax>0.100000</dtmax>
         <max_retries>5.000000</max_retries>
         <opt_iter>5.000000</opt_iter>
         <aggressiveness>1.000000</aggressiveness>
      </time_stepper>
   </Control>
   <Globals>
      <Constants>
         <T>0.0000000e+00</T>
         <R>0.0000000e+00</R>
         <Fc>0.0000000e+00</Fc>
      </Constants>
   </Globals>
   <Material>
      <material id="1" name="mat_1" type="Mooney-Rivlin">
         <c1>1.0000000e-03</c1>
         <c2>0.0000000e+00</c2>
         <k>1.0000000e+00</k>
      </material>
   </Material>
   <Geometry>
      <Nodes>
         <node id="1">-1.0000000e+01, -2.5000000e+00, -2.5000000e+00</node>
         <node id="2">-1.0000000e+01, -1.5000000e+00, -2.5000000e+00</node>
         <node id="3">-1.0000000e+01, -5.0000000e-01, -2.5000000e+00</node>
         <node id="4">-1.0000000e+01, 5.0000000e-01, -2.5000000e+00</node>
         <node id="5">-1.0000000e+01, 1.5000000e+00, -2.5000000e+00</node>
         <node id="6">-1.0000000e+01, 2.5000000e+00, -2.5000000e+00</node>
         <node id="7">-9.0000000e+00, -2.5000000e+00, -2.5000000e+00</node>
         <node id="8">-9.0000000e+00, -1.5000000e+00, -2.5000000e+00</node>
         <node id="9">-9.0000000e+00, -5.0000000e-01, -2.5000000e+00</node>
         <node id="10">-9.0000000e+00, 5.0000000e-01, -2.5000000e+00</node>
         <node id="11">-9.0000000e+00, 1.5000000e+00, -2.5000000e+00</node>
         <node id="12">-9.0000000e+00, 2.5000000e+00, -2.5000000e+00</node>
         <node id="13">-8.0000000e+00, -2.5000000e+00, -2.5000000e+00</node>
         <node id="14">-8.0000000e+00, -1.5000000e+00, -2.5000000e+00</node>
         <node id="15">-8.0000000e+00, -5.0000000e-01, -2.5000000e+00</node>
         <node id="16">-8.0000000e+00, 5.0000000e-01, -2.5000000e+00</node>
         <node id="17">-8.0000000e+00, 1.5000000e+00, -2.5000000e+00</node>
         <node id="18">-8.0000000e+00, 2.5000000e+00, -2.5000000e+00</node>
         <node id="19">-7.0000000e+00, -2.5000000e+00, -2.5000000e+00</node>
         <node id="20">-7.0000000e+00, -1.5000000e+00, -2.5000000e+00</node>
<!-- ... 736 like lines cut -->
      </Nodes>
      <Elements mat="1" name="Bar" type="hex8">
         <elem id="1">   1,   7,   8,   2,   127,   133,   134,   128</elem>
         <elem id="2">   2,   8,   9,   3,   128,   134,   135,   129</elem>
         <elem id="3">   3,   9,   10,   4,   129,   135,   136,   130</elem>
         <elem id="4">   4,   10,   11,   5,   130,   136,   137,   131</elem>
         <elem id="5">   5,   11,   12,   6,   131,   137,   138,   132</elem>
         <elem id="6">   7,   13,   14,   8,   133,   139,   140,   134</elem>
         <elem id="7">   8,   14,   15,   9,   134,   140,   141,   135</elem>
         <elem id="8">   9,   15,   16,   10,   135,   141,   142,   136</elem>
         <elem id="9">   10,   16,   17,   11,   136,   142,   143,   137</elem>
         <elem id="10">   11,   17,   18,   12,   137,   143,   144,   138</elem>
         <elem id="11">   13,   19,   20,   14,   139,   145,   146,   140</elem>
         <elem id="12">   14,   20,   21,   15,   140,   146,   147,   141</elem>
         <elem id="13">   15,   21,   22,   16,   141,   147,   148,   142</elem>
         <elem id="14">   16,   22,   23,   17,   142,   148,   149,   143</elem>
         <elem id="15">   17,   23,   24,   18,   143,   149,   150,   144</elem>
         <elem id="16">   19,   25,   26,   20,   145,   151,   152,   146</elem>
         <elem id="17">   20,   26,   27,   21,   146,   152,   153,   147</elem>
         <elem id="18">   21,   27,   28,   22,   147,   153,   154,   148</elem>
         <elem id="19">   22,   28,   29,   23,   148,   154,   155,   149</elem>
         <elem id="20">   23,   29,   30,   24,   149,   155,   156,   150</elem>
<!-- ... 480 like lines cut -->
      </Elements>
      <NodeSet name="bcRigidList">
         <node id="1"/>
         <node id="2"/>
         <node id="3"/>
         <node id="4"/>
         <node id="5"/>
         <node id="6"/>
         <node id="127"/>
         <node id="128"/>
         <node id="129"/>
         <node id="130"/>
         <node id="131"/>
         <node id="132"/>
         <node id="253"/>
         <node id="254"/>
         <node id="255"/>
         <node id="256"/>
         <node id="257"/>
         <node id="258"/>
         <node id="379"/>
         <node id="380"/>
<!-- ... 16 like lines cut -->
      </NodeSet>
      <NodeSet name="bcPrescribeList">
         <node id="121"/>
         <node id="122"/>
         <node id="123"/>
         <node id="124"/>
         <node id="125"/>
         <node id="126"/>
         <node id="247"/>
         <node id="248"/>
         <node id="249"/>
         <node id="250"/>
         <node id="251"/>
         <node id="252"/>
         <node id="373"/>
         <node id="374"/>
         <node id="375"/>
         <node id="376"/>
         <node id="377"/>
         <node id="378"/>
         <node id="499"/>
         <node id="500"/>
<!-- ... 16 like lines cut -->
      </NodeSet>
   </Geometry>
   <Boundary>
      <fix bc="x" set="bcRigidList"/>
      <fix bc="y" set="bcRigidList"/>
      <fix bc="z" set="bcRigidList"/>
   </Boundary>
   <Loads>
      <nodal_load bc="x" lc="1">
         <node id="121">0.0000000e+00</node>
         <node id="122">0.0000000e+00</node>
         <node id="123">0.0000000e+00</node>
         <node id="124">0.0000000e+00</node>
         <node id="125">0.0000000e+00</node>
         <node id="126">0.0000000e+00</node>
         <node id="247">0.0000000e+00</node>
         <node id="248">0.0000000e+00</node>
         <node id="249">0.0000000e+00</node>
         <node id="250">0.0000000e+00</node>
         <node id="251">0.0000000e+00</node>
         <node id="252">0.0000000e+00</node>
         <node id="373">0.0000000e+00</node>
         <node id="374">0.0000000e+00</node>
         <node id="375">0.0000000e+00</node>
         <node id="376">0.0000000e+00</node>
         <node id="377">0.0000000e+00</node>
         <node id="378">0.0000000e+00</node>
         <node id="499">0.0000000e+00</node>
         <node id="500">0.0000000e+00</node>
<!-- ... 16 like lines cut -->
      </nodal_load>
      <nodal_load bc="y" lc="1">
         <node id="121">0.0000000e+00</node>
         <node id="122">0.0000000e+00</node>
         <node id="123">0.0000000e+00</node>
         <node id="124">0.0000000e+00</node>
         <node id="125">0.0000000e+00</node>
         <node id="126">0.0000000e+00</node>
         <node id="247">0.0000000e+00</node>
         <node id="248">0.0000000e+00</node>
         <node id="249">0.0000000e+00</node>
         <node id="250">0.0000000e+00</node>
         <node id="251">0.0000000e+00</node>
         <node id="252">0.0000000e+00</node>
         <node id="373">0.0000000e+00</node>
         <node id="374">0.0000000e+00</node>
         <node id="375">0.0000000e+00</node>
         <node id="376">0.0000000e+00</node>
         <node id="377">0.0000000e+00</node>
         <node id="378">0.0000000e+00</node>
         <node id="499">0.0000000e+00</node>
         <node id="500">0.0000000e+00</node>
<!-- ... 16 like lines cut -->
      </nodal_load>
      <nodal_load bc="z" lc="1">
         <node id="121">-2.0000000e-05</node>
         <node id="122">-2.0000000e-05</node>
         <node id="123">-2.0000000e-05</node>
         <node id="124">-2.0000000e-05</node>
         <node id="125">-2.0000000e-05</node>
         <node id="126">-2.0000000e-05</node>
         <node id="247">-2.0000000e-05</node>
         <node id="248">-2.0000000e-05</node>
         <node id="249">-2.0000000e-05</node>
         <node id="250">-2.0000000e-05</node>
         <node id="251">-2.0000000e-05</node>
         <node id="252">-2.0000000e-05</node>
         <node id="373">-2.0000000e-05</node>
         <node id="374">-2.0000000e-05</node>
         <node id="375">-2.0000000e-05</node>
         <node id="376">-2.0000000e-05</node>
         <node id="377">-2.0000000e-05</node>
         <node id="378">-2.0000000e-05</node>
         <node id="499">-2.0000000e-05</node>
         <node id="500">-2.0000000e-05</node>
<!-- ... 16 like lines cut -->
      </nodal_load>
   </Loads>
   <LoadData>
      <loadcurve id="1" type="linear">
         <loadpoint>0.000000, 0.000000</loadpoint>
         <loadpoint>1.000000, 1.000000</loadpoint>
      </loadcurve>
   </LoadData>
   <Output>
      <plotfile type="febio">
         <var type="displacement"/>
         <var type="stress"/>
         <var type="relative volume"/>
         <var type="shell thickness"/>
      </plotfile>
      <logfile>
         <node_data data="ux;uy;uz" delim=", " file="tempModel_node_out.txt"/>
      </logfile>
   </Output>
</febio_spec>
