<?xml version="1.0" encoding="utf-8"?>
<febio_spec version="2.0"><!--Created using GIBBON, 17-Jun-2016 11:23:32-->
   <Module type="solid"/>
   <Control>
      <time_steps>10.000000</time_steps>
      <step_size>0.100000</step_size>
      <max_refs>25.000000</max_refs>
      <max_ups>0.000000</max_ups>
      <dtol>0.001000</dtol>
      <etol>0.010000</etol>
      <rtol>0.000000</rtol>
      <lstol>0.900000</lstol>
      <analysis type="static"/>
      <time_stepper>
         <dtmin>0.001000</dtmin>
         <dtmax>0.100000</dtmax>
         <max_retries>5.000000</max_retries>
         <opt_iter>10.000000</opt_iter>
         <aggressiveness>1.000000</aggressiveness>
      </time_stepper>
   </Control>
   <Globals>
      <Constants>
         <T>0.0000000e+00</T>
         <R>0.0000000e+00</R>
         <Fc>0.0000000e+00</Fc>
      </Constants>
   </Globals>
   <Material>
      <material id="1" name="mat_1" type="Ogden">
         <c1>1.0000000e-03</c1>
         <m1>1.2000000e+01</m1>
         <k>1.0000000e+00</k>
      </material>
   </Material>
   <Geometry>
      <Nodes>
         <node id="1">-3.0000000e+00, -4.5000000e+00, -3.0000000e+00</node>
         <node id="2">-3.0000000e+00, -4.5000000e+00, -2.5000000e+00</node>
         <node id="3">-3.0000000e+00, -4.5000000e+00, -2.0000000e+00</node>
         <node id="4">-3.0000000e+00, -4.5000000e+00, -1.5000000e+00</node>
         <node id="5">-3.0000000e+00, -4.5000000e+00, -1.0000000e+00</node>
         <node id="6">-3.0000000e+00, -4.5000000e+00, -5.0000000e-01</node>
         <node id="7">-3.0000000e+00, -4.5000000e+00, 0.0000000e+00</node>
         <node id="8">-3.0000000e+00, -4.0000000e+00, -3.0000000e+00</node>
         <node id="9">-3.0000000e+00, -4.0000000e+00, -2.5000000e+00</node>
         <node id="10">-3.0000000e+00, -4.0000000e+00, -2.0000000e+00</node>
         <node id="11">-3.0000000e+00, -4.0000000e+00, -1.5000000e+00</node>
         <node id="12">-3.0000000e+00, -4.0000000e+00, -1.0000000e+00</node>
         <node id="13">-3.0000000e+00, -4.0000000e+00, -5.0000000e-01</node>
         <node id="14">-3.0000000e+00, -4.0000000e+00, 0.0000000e+00</node>
         <node id="15">-3.0000000e+00, -3.5000000e+00, -3.0000000e+00</node>
         <node id="16">-3.0000000e+00, -3.5000000e+00, -2.5000000e+00</node>
         <node id="17">-3.0000000e+00, -3.5000000e+00, -2.0000000e+00</node>
         <node id="18">-3.0000000e+00, -3.5000000e+00, -1.5000000e+00</node>
         <node id="19">-3.0000000e+00, -3.5000000e+00, -1.0000000e+00</node>
         <node id="20">-3.0000000e+00, -3.5000000e+00, -5.0000000e-01</node>
<!-- ... 2473 like lines cut -->
      </Nodes>
      <Elements mat="1" name="Tissue" type="tet4">
         <elem id="1">   478,   524,   476,   1022</elem>
         <elem id="2">   1665,   1142,   1767,   1798</elem>
         <elem id="3">   316,   1324,   1743,   2405</elem>
         <elem id="4">   331,   283,   286,   2007</elem>
         <elem id="5">   1129,   135,   1253,   1490</elem>
         <elem id="6">   1279,   1058,   1575,   2369</elem>
         <elem id="7">   1037,   1418,   1715,   2138</elem>
         <elem id="8">   1346,   1499,   2026,   2453</elem>
         <elem id="9">   1306,   1016,   1828,   1968</elem>
         <elem id="10">   250,   298,   1568,   2163</elem>
         <elem id="11">   357,   405,   1509,   1809</elem>
         <elem id="12">   935,   928,   1230,   1267</elem>
         <elem id="13">   966,   854,   1170,   1378</elem>
         <elem id="14">   878,   877,   1138,   1644</elem>
         <elem id="15">   1058,   2044,   2062,   2369</elem>
         <elem id="16">   524,   523,   1153,   1919</elem>
         <elem id="17">   2044,   1058,   2062,   2274</elem>
         <elem id="18">   262,   264,   1475,   1865</elem>
         <elem id="19">   434,   482,   1507,   1920</elem>
         <elem id="20">   541,   539,   1073,   1946</elem>
<!-- ... 12898 like lines cut -->
      </Elements>
      <Surface name="Pressure_surface">
         <tri3 id="1">   140,   7,   14</tri3>
         <tri3 id="2">   142,   14,   21</tri3>
         <tri3 id="3">   144,   21,   28</tri3>
         <tri3 id="4">   146,   28,   35</tri3>
         <tri3 id="5">   148,   35,   42</tri3>
         <tri3 id="6">   150,   42,   49</tri3>
         <tri3 id="7">   152,   49,   56</tri3>
         <tri3 id="8">   154,   56,   63</tri3>
         <tri3 id="9">   156,   63,   70</tri3>
         <tri3 id="10">   158,   70,   77</tri3>
         <tri3 id="11">   160,   77,   84</tri3>
         <tri3 id="12">   162,   84,   91</tri3>
         <tri3 id="13">   164,   91,   98</tri3>
         <tri3 id="14">   166,   98,   105</tri3>
         <tri3 id="15">   168,   105,   112</tri3>
         <tri3 id="16">   170,   112,   119</tri3>
         <tri3 id="17">   172,   119,   126</tri3>
         <tri3 id="18">   174,   126,   133</tri3>
         <tri3 id="19">   188,   140,   142</tri3>
         <tri3 id="20">   190,   142,   144</tri3>
<!-- ... 412 like lines cut -->
      </Surface>
      <NodeSet name="bcRigidListFull">
         <node id="1"/>
         <node id="8"/>
         <node id="15"/>
         <node id="22"/>
         <node id="29"/>
         <node id="36"/>
         <node id="43"/>
         <node id="50"/>
         <node id="57"/>
         <node id="64"/>
         <node id="71"/>
         <node id="78"/>
         <node id="85"/>
         <node id="92"/>
         <node id="99"/>
         <node id="106"/>
         <node id="113"/>
         <node id="120"/>
         <node id="127"/>
         <node id="134"/>
<!-- ... 389 like lines cut -->
      </NodeSet>
      <NodeSet name="bcRigidList_x">
         <node id="1"/>
         <node id="2"/>
         <node id="3"/>
         <node id="4"/>
         <node id="5"/>
         <node id="6"/>
         <node id="7"/>
         <node id="8"/>
         <node id="9"/>
         <node id="10"/>
         <node id="11"/>
         <node id="12"/>
         <node id="13"/>
         <node id="14"/>
         <node id="15"/>
         <node id="16"/>
         <node id="17"/>
         <node id="18"/>
         <node id="19"/>
         <node id="20"/>
<!-- ... 246 like lines cut -->
      </NodeSet>
      <NodeSet name="bcRigidList_y">
         <node id="1"/>
         <node id="2"/>
         <node id="3"/>
         <node id="4"/>
         <node id="5"/>
         <node id="6"/>
         <node id="7"/>
         <node id="127"/>
         <node id="128"/>
         <node id="129"/>
         <node id="130"/>
         <node id="131"/>
         <node id="132"/>
         <node id="133"/>
         <node id="134"/>
         <node id="135"/>
         <node id="136"/>
         <node id="137"/>
         <node id="138"/>
         <node id="139"/>
<!-- ... 162 like lines cut -->
      </NodeSet>
   </Geometry>
   <Boundary>
      <fix bc="x" set="bcRigidListFull"/>
      <fix bc="y" set="bcRigidListFull"/>
      <fix bc="z" set="bcRigidListFull"/>
      <fix bc="x" set="bcRigidList_x"/>
      <fix bc="y" set="bcRigidList_y"/>
      <prescribe bc="z" lc="1">
         <node id="7">-3.0000000e-01</node>
         <node id="14">-3.0000000e-01</node>
         <node id="21">-3.0000000e-01</node>
         <node id="28">-3.0000000e-01</node>
         <node id="35">-3.0000000e-01</node>
         <node id="42">-3.0000000e-01</node>
         <node id="49">-3.0000000e-01</node>
         <node id="56">-3.0000000e-01</node>
         <node id="63">-3.0000000e-01</node>
         <node id="70">-3.0000000e-01</node>
         <node id="77">-3.0000000e-01</node>
         <node id="84">-3.0000000e-01</node>
         <node id="91">-3.0000000e-01</node>
         <node id="98">-3.0000000e-01</node>
         <node id="105">-3.0000000e-01</node>
         <node id="112">-3.0000000e-01</node>
         <node id="119">-3.0000000e-01</node>
         <node id="126">-3.0000000e-01</node>
         <node id="133">-3.0000000e-01</node>
         <node id="140">-3.0000000e-01</node>
<!-- ... 227 like lines cut -->
      </prescribe>
   </Boundary>
   <LoadData>
      <loadcurve id="1" type="linear">
         <loadpoint>0.000000, 0.000000</loadpoint>
         <loadpoint>1.000000, 1.000000</loadpoint>
      </loadcurve>
   </LoadData>
   <Output>
      <plotfile type="febio">
         <var type="displacement"/>
         <var type="stress"/>
         <var type="relative volume"/>
      </plotfile>
      <logfile>
         <node_data data="ux;uy;uz" delim=", " file="tempModel_node_out.txt"/>
      </logfile>
   </Output>
</febio_spec>
