<?xml version="1.0" encoding="utf-8"?>
<febio_spec version="2.0"><!--Created using GIBBON, 08-Feb-2017 09:43:58-->
   <Module type="solid"/>
   <Control>
      <time_steps>20.000000</time_steps>
      <step_size>0.050000</step_size>
      <max_refs>25.000000</max_refs>
      <max_ups>0.000000</max_ups>
      <dtol>0.001000</dtol>
      <etol>0.010000</etol>
      <rtol>0.000000</rtol>
      <lstol>0.900000</lstol>
      <analysis type="static"/>
      <time_stepper>
         <dtmin>0.000500</dtmin>
         <dtmax>0.050000</dtmax>
         <max_retries>5.000000</max_retries>
         <opt_iter>5.000000</opt_iter>
      </time_stepper>
   </Control>
   <Globals>
      <Constants>
         <T>0.0000000e+00</T>
         <R>0.0000000e+00</R>
         <Fc>0.0000000e+00</Fc>
      </Constants>
   </Globals>
   <Material>
      <material id="1" name="gel_mat" type="Ogden">
         <c1>1.0000000e-03</c1>
         <m1>2.0000000e+00</m1>
         <k>5.0000000e-02</k>
      </material>
      <material id="2" name="mat_2" type="rigid body">
         <density>1.0000000e+00</density>
         <center_of_mass>0.0000000e+00, 0.0000000e+00, 0.0000000e+00</center_of_mass>
      </material>
   </Material>
   <Geometry>
      <Nodes>
         <node id="1">-5.9031293e+01, -7.4573208e+00, -1.0000000e+02</node>
         <node id="2">-5.9031293e+01, -7.4573208e+00, -6.6666667e+01</node>
         <node id="3">-5.9031293e+01, -7.4573208e+00, -3.3333333e+01</node>
         <node id="4">-5.9031293e+01, -7.4573208e+00, 0.0000000e+00</node>
         <node id="5">-5.9031293e+01, -2.8421709e-14, -8.3333333e+01</node>
         <node id="6">-5.9031293e+01, -2.8421709e-14, -5.0000000e+01</node>
         <node id="7">-5.9031293e+01, -2.8421709e-14, -1.6666667e+01</node>
         <node id="8">-5.9031293e+01, 7.4573208e+00, -1.0000000e+02</node>
         <node id="9">-5.9031293e+01, 7.4573208e+00, -6.6666667e+01</node>
         <node id="10">-5.9031293e+01, 7.4573208e+00, -3.3333333e+01</node>
         <node id="11">-5.9031293e+01, 7.4573208e+00, 0.0000000e+00</node>
         <node id="12">-5.7176560e+01, -1.4680355e+01, -8.3333333e+01</node>
         <node id="13">-5.7176560e+01, -1.4680355e+01, -5.0000000e+01</node>
         <node id="14">-5.7176560e+01, -1.4680355e+01, -1.6666667e+01</node>
         <node id="15">-5.7176560e+01, 1.4680355e+01, -8.3333333e+01</node>
         <node id="16">-5.7176560e+01, 1.4680355e+01, -5.0000000e+01</node>
         <node id="17">-5.7176560e+01, 1.4680355e+01, -1.6666667e+01</node>
         <node id="18">-5.5321827e+01, -2.1903389e+01, -1.0000000e+02</node>
         <node id="19">-5.5321827e+01, -2.1903389e+01, -6.6666667e+01</node>
         <node id="20">-5.5321827e+01, -2.1903389e+01, -3.3333333e+01</node>
<!-- ... 11649 like lines cut -->
      </Nodes>
      <Elements mat="1" name="Gel" type="tet10">
         <elem id="1">   154,   807,   1022,   1217,   4725,   6460,   6454,   8361,   8366,   8368</elem>
         <elem id="2">   537,   372,   559,   689,   3145,   3260,   3263,   3938,   3934,   3939</elem>
         <elem id="3">   150,   954,   1007,   1292,   5867,   6319,   6313,   9148,   9152,   9153</elem>
         <elem id="4">   18,   12,   42,   1,   1522,   1590,   1591,   1521,   1503,   1588</elem>
         <elem id="5">   870,   420,   900,   1221,   5189,   5445,   5453,   8413,   8410,   8414</elem>
         <elem id="6">   78,   72,   44,   56,   1705,   1682,   1702,   1704,   1683,   1638</elem>
         <elem id="7">   533,   1025,   1115,   1308,   6481,   7339,   7335,   9334,   9336,   9338</elem>
         <elem id="8">   650,   393,   900,   1053,   3716,   5443,   5448,   6735,   6731,   6738</elem>
         <elem id="9">   275,   245,   213,   253,   2299,   2207,   2298,   2300,   2232,   2230</elem>
         <elem id="10">   64,   1051,   1183,   1216,   6713,   8003,   7999,   8352,   8356,   8357</elem>
         <elem id="11">   278,   301,   320,   1209,   2388,   2449,   2447,   8275,   8277,   8278</elem>
         <elem id="12">   591,   495,   652,   1089,   3416,   3723,   3725,   7087,   7086,   7090</elem>
         <elem id="13">   83,   70,   924,   1008,   1717,   5618,   5619,   6322,   6321,   6327</elem>
         <elem id="14">   324,   337,   338,   475,   2504,   2507,   2505,   2901,   2902,   2903</elem>
         <elem id="15">   128,   156,   416,   717,   1933,   2736,   2735,   4123,   4124,   4130</elem>
         <elem id="16">   1277,   267,   1411,   1484,   8975,   10541,   10550,   11420,   11413,   11421</elem>
         <elem id="17">   492,   653,   846,   1092,   3731,   5017,   5015,   7118,   7120,   7121</elem>
         <elem id="18">   373,   349,   381,   387,   2626,   2653,   2655,   2679,   2677,   2681</elem>
         <elem id="19">   394,   521,   758,   899,   3077,   4400,   4397,   5433,   5435,   5440</elem>
         <elem id="20">   455,   563,   728,   991,   3280,   4203,   4201,   6164,   6166,   6168</elem>
<!-- ... 8069 like lines cut -->
      </Elements>
      <Elements mat="2" name="Indentor" type="tri3">
         <elem id="8090">   11501,   11522,   11511</elem>
         <elem id="8091">   11492,   11491,   11484</elem>
         <elem id="8092">   11473,   11492,   11484</elem>
         <elem id="8093">   11465,   11473,   11484</elem>
         <elem id="8094">   11472,   11465,   11484</elem>
         <elem id="8095">   11616,   11618,   11600</elem>
         <elem id="8096">   11575,   11571,   11557</elem>
         <elem id="8097">   11576,   11560,   11561</elem>
         <elem id="8098">   11617,   11596,   11604</elem>
         <elem id="8099">   11571,   11546,   11557</elem>
         <elem id="8100">   11596,   11583,   11604</elem>
         <elem id="8101">   11546,   11542,   11557</elem>
         <elem id="8102">   11542,   11558,   11557</elem>
         <elem id="8103">   11543,   11547,   11561</elem>
         <elem id="8104">   11502,   11497,   11515</elem>
         <elem id="8105">   11622,   11617,   11604</elem>
         <elem id="8106">   11595,   11616,   11600</elem>
         <elem id="8107">   11558,   11575,   11557</elem>
         <elem id="8108">   11572,   11576,   11561</elem>
         <elem id="8109">   11522,   11532,   11511</elem>
<!-- ... 396 like lines cut -->
      </Elements>
      <ElementData>
         <element id="8090">
            <thickness> 1.0000000e-02, 1.0000000e-02, 1.0000000e-02</thickness>
         </element>
         <element id="8091">
            <thickness> 1.0000000e-02, 1.0000000e-02, 1.0000000e-02</thickness>
         </element>
         <element id="8092">
            <thickness> 1.0000000e-02, 1.0000000e-02, 1.0000000e-02</thickness>
         </element>
         <element id="8093">
            <thickness> 1.0000000e-02, 1.0000000e-02, 1.0000000e-02</thickness>
         </element>
         <element id="8094">
            <thickness> 1.0000000e-02, 1.0000000e-02, 1.0000000e-02</thickness>
         </element>
         <element id="8095">
            <thickness> 1.0000000e-02, 1.0000000e-02, 1.0000000e-02</thickness>
         </element>
         <element id="8096">
            <thickness> 1.0000000e-02, 1.0000000e-02, 1.0000000e-02</thickness>
         </element>
         <element id="8097">
            <thickness> 1.0000000e-02, 1.0000000e-02, 1.0000000e-02</thickness>
         </element>
         <element id="8098">
            <thickness> 1.0000000e-02, 1.0000000e-02, 1.0000000e-02</thickness>
         </element>
         <element id="8099">
            <thickness> 1.0000000e-02, 1.0000000e-02, 1.0000000e-02</thickness>
         </element>
         <element id="8100">
            <thickness> 1.0000000e-02, 1.0000000e-02, 1.0000000e-02</thickness>
         </element>
         <element id="8101">
            <thickness> 1.0000000e-02, 1.0000000e-02, 1.0000000e-02</thickness>
         </element>
         <element id="8102">
            <thickness> 1.0000000e-02, 1.0000000e-02, 1.0000000e-02</thickness>
         </element>
         <element id="8103">
            <thickness> 1.0000000e-02, 1.0000000e-02, 1.0000000e-02</thickness>
         </element>
         <element id="8104">
            <thickness> 1.0000000e-02, 1.0000000e-02, 1.0000000e-02</thickness>
         </element>
         <element id="8105">
            <thickness> 1.0000000e-02, 1.0000000e-02, 1.0000000e-02</thickness>
         </element>
         <element id="8106">
            <thickness> 1.0000000e-02, 1.0000000e-02, 1.0000000e-02</thickness>
         </element>
         <element id="8107">
            <thickness> 1.0000000e-02, 1.0000000e-02, 1.0000000e-02</thickness>
         </element>
         <element id="8108">
            <thickness> 1.0000000e-02, 1.0000000e-02, 1.0000000e-02</thickness>
         </element>
         <element id="8109">
            <thickness> 1.0000000e-02, 1.0000000e-02, 1.0000000e-02</thickness>
         </element>
         <element id="8110">
            <thickness> 1.0000000e-02, 1.0000000e-02, 1.0000000e-02</thickness>
         </element>
         <element id="8111">
            <thickness> 1.0000000e-02, 1.0000000e-02, 1.0000000e-02</thickness>
         </element>
         <element id="8112">
            <thickness> 1.0000000e-02, 1.0000000e-02, 1.0000000e-02</thickness>
         </element>
         <element id="8113">
            <thickness> 1.0000000e-02, 1.0000000e-02, 1.0000000e-02</thickness>
         </element>
         <element id="8114">
            <thickness> 1.0000000e-02, 1.0000000e-02, 1.0000000e-02</thickness>
         </element>
         <element id="8115">
            <thickness> 1.0000000e-02, 1.0000000e-02, 1.0000000e-02</thickness>
         </element>
         <element id="8116">
            <thickness> 1.0000000e-02, 1.0000000e-02, 1.0000000e-02</thickness>
         </element>
         <element id="8117">
            <thickness> 1.0000000e-02, 1.0000000e-02, 1.0000000e-02</thickness>
         </element>
         <element id="8118">
            <thickness> 1.0000000e-02, 1.0000000e-02, 1.0000000e-02</thickness>
         </element>
         <element id="8119">
            <thickness> 1.0000000e-02, 1.0000000e-02, 1.0000000e-02</thickness>
         </element>
         <element id="8120">
            <thickness> 1.0000000e-02, 1.0000000e-02, 1.0000000e-02</thickness>
         </element>
         <element id="8121">
            <thickness> 1.0000000e-02, 1.0000000e-02, 1.0000000e-02</thickness>
         </element>
         <element id="8122">
            <thickness> 1.0000000e-02, 1.0000000e-02, 1.0000000e-02</thickness>
         </element>
         <element id="8123">
            <thickness> 1.0000000e-02, 1.0000000e-02, 1.0000000e-02</thickness>
         </element>
         <element id="8124">
            <thickness> 1.0000000e-02, 1.0000000e-02, 1.0000000e-02</thickness>
         </element>
         <element id="8125">
            <thickness> 1.0000000e-02, 1.0000000e-02, 1.0000000e-02</thickness>
         </element>
         <element id="8126">
            <thickness> 1.0000000e-02, 1.0000000e-02, 1.0000000e-02</thickness>
         </element>
         <element id="8127">
            <thickness> 1.0000000e-02, 1.0000000e-02, 1.0000000e-02</thickness>
         </element>
         <element id="8128">
            <thickness> 1.0000000e-02, 1.0000000e-02, 1.0000000e-02</thickness>
         </element>
         <element id="8129">
            <thickness> 1.0000000e-02, 1.0000000e-02, 1.0000000e-02</thickness>
         </element>
         <element id="8130">
            <thickness> 1.0000000e-02, 1.0000000e-02, 1.0000000e-02</thickness>
         </element>
         <element id="8131">
            <thickness> 1.0000000e-02, 1.0000000e-02, 1.0000000e-02</thickness>
         </element>
         <element id="8132">
            <thickness> 1.0000000e-02, 1.0000000e-02, 1.0000000e-02</thickness>
         </element>
         <element id="8133">
            <thickness> 1.0000000e-02, 1.0000000e-02, 1.0000000e-02</thickness>
         </element>
         <element id="8134">
            <thickness> 1.0000000e-02, 1.0000000e-02, 1.0000000e-02</thickness>
         </element>
         <element id="8135">
            <thickness> 1.0000000e-02, 1.0000000e-02, 1.0000000e-02</thickness>
         </element>
         <element id="8136">
            <thickness> 1.0000000e-02, 1.0000000e-02, 1.0000000e-02</thickness>
         </element>
         <element id="8137">
            <thickness> 1.0000000e-02, 1.0000000e-02, 1.0000000e-02</thickness>
         </element>
         <element id="8138">
            <thickness> 1.0000000e-02, 1.0000000e-02, 1.0000000e-02</thickness>
         </element>
         <element id="8139">
            <thickness> 1.0000000e-02, 1.0000000e-02, 1.0000000e-02</thickness>
         </element>
         <element id="8140">
            <thickness> 1.0000000e-02, 1.0000000e-02, 1.0000000e-02</thickness>
         </element>
         <element id="8141">
            <thickness> 1.0000000e-02, 1.0000000e-02, 1.0000000e-02</thickness>
         </element>
         <element id="8142">
            <thickness> 1.0000000e-02, 1.0000000e-02, 1.0000000e-02</thickness>
         </element>
         <element id="8143">
            <thickness> 1.0000000e-02, 1.0000000e-02, 1.0000000e-02</thickness>
         </element>
         <element id="8144">
            <thickness> 1.0000000e-02, 1.0000000e-02, 1.0000000e-02</thickness>
         </element>
         <element id="8145">
            <thickness> 1.0000000e-02, 1.0000000e-02, 1.0000000e-02</thickness>
         </element>
         <element id="8146">
            <thickness> 1.0000000e-02, 1.0000000e-02, 1.0000000e-02</thickness>
         </element>
         <element id="8147">
            <thickness> 1.0000000e-02, 1.0000000e-02, 1.0000000e-02</thickness>
         </element>
         <element id="8148">
            <thickness> 1.0000000e-02, 1.0000000e-02, 1.0000000e-02</thickness>
         </element>
         <element id="8149">
            <thickness> 1.0000000e-02, 1.0000000e-02, 1.0000000e-02</thickness>
         </element>
         <element id="8150">
            <thickness> 1.0000000e-02, 1.0000000e-02, 1.0000000e-02</thickness>
         </element>
         <element id="8151">
            <thickness> 1.0000000e-02, 1.0000000e-02, 1.0000000e-02</thickness>
         </element>
         <element id="8152">
            <thickness> 1.0000000e-02, 1.0000000e-02, 1.0000000e-02</thickness>
         </element>
         <element id="8153">
            <thickness> 1.0000000e-02, 1.0000000e-02, 1.0000000e-02</thickness>
         </element>
         <element id="8154">
            <thickness> 1.0000000e-02, 1.0000000e-02, 1.0000000e-02</thickness>
         </element>
         <element id="8155">
            <thickness> 1.0000000e-02, 1.0000000e-02, 1.0000000e-02</thickness>
         </element>
         <element id="8156">
            <thickness> 1.0000000e-02, 1.0000000e-02, 1.0000000e-02</thickness>
         </element>
         <element id="8157">
            <thickness> 1.0000000e-02, 1.0000000e-02, 1.0000000e-02</thickness>
         </element>
         <element id="8158">
            <thickness> 1.0000000e-02, 1.0000000e-02, 1.0000000e-02</thickness>
         </element>
         <element id="8159">
            <thickness> 1.0000000e-02, 1.0000000e-02, 1.0000000e-02</thickness>
         </element>
         <element id="8160">
            <thickness> 1.0000000e-02, 1.0000000e-02, 1.0000000e-02</thickness>
         </element>
         <element id="8161">
            <thickness> 1.0000000e-02, 1.0000000e-02, 1.0000000e-02</thickness>
         </element>
         <element id="8162">
            <thickness> 1.0000000e-02, 1.0000000e-02, 1.0000000e-02</thickness>
         </element>
         <element id="8163">
            <thickness> 1.0000000e-02, 1.0000000e-02, 1.0000000e-02</thickness>
         </element>
         <element id="8164">
            <thickness> 1.0000000e-02, 1.0000000e-02, 1.0000000e-02</thickness>
         </element>
         <element id="8165">
            <thickness> 1.0000000e-02, 1.0000000e-02, 1.0000000e-02</thickness>
         </element>
         <element id="8166">
            <thickness> 1.0000000e-02, 1.0000000e-02, 1.0000000e-02</thickness>
         </element>
         <element id="8167">
            <thickness> 1.0000000e-02, 1.0000000e-02, 1.0000000e-02</thickness>
         </element>
         <element id="8168">
            <thickness> 1.0000000e-02, 1.0000000e-02, 1.0000000e-02</thickness>
         </element>
         <element id="8169">
            <thickness> 1.0000000e-02, 1.0000000e-02, 1.0000000e-02</thickness>
         </element>
         <element id="8170">
            <thickness> 1.0000000e-02, 1.0000000e-02, 1.0000000e-02</thickness>
         </element>
         <element id="8171">
            <thickness> 1.0000000e-02, 1.0000000e-02, 1.0000000e-02</thickness>
         </element>
         <element id="8172">
            <thickness> 1.0000000e-02, 1.0000000e-02, 1.0000000e-02</thickness>
         </element>
         <element id="8173">
            <thickness> 1.0000000e-02, 1.0000000e-02, 1.0000000e-02</thickness>
         </element>
         <element id="8174">
            <thickness> 1.0000000e-02, 1.0000000e-02, 1.0000000e-02</thickness>
         </element>
         <element id="8175">
            <thickness> 1.0000000e-02, 1.0000000e-02, 1.0000000e-02</thickness>
         </element>
         <element id="8176">
            <thickness> 1.0000000e-02, 1.0000000e-02, 1.0000000e-02</thickness>
         </element>
         <element id="8177">
            <thickness> 1.0000000e-02, 1.0000000e-02, 1.0000000e-02</thickness>
         </element>
         <element id="8178">
            <thickness> 1.0000000e-02, 1.0000000e-02, 1.0000000e-02</thickness>
         </element>
         <element id="8179">
            <thickness> 1.0000000e-02, 1.0000000e-02, 1.0000000e-02</thickness>
         </element>
         <element id="8180">
            <thickness> 1.0000000e-02, 1.0000000e-02, 1.0000000e-02</thickness>
         </element>
         <element id="8181">
            <thickness> 1.0000000e-02, 1.0000000e-02, 1.0000000e-02</thickness>
         </element>
         <element id="8182">
            <thickness> 1.0000000e-02, 1.0000000e-02, 1.0000000e-02</thickness>
         </element>
         <element id="8183">
            <thickness> 1.0000000e-02, 1.0000000e-02, 1.0000000e-02</thickness>
         </element>
         <element id="8184">
            <thickness> 1.0000000e-02, 1.0000000e-02, 1.0000000e-02</thickness>
         </element>
         <element id="8185">
            <thickness> 1.0000000e-02, 1.0000000e-02, 1.0000000e-02</thickness>
         </element>
         <element id="8186">
            <thickness> 1.0000000e-02, 1.0000000e-02, 1.0000000e-02</thickness>
         </element>
         <element id="8187">
            <thickness> 1.0000000e-02, 1.0000000e-02, 1.0000000e-02</thickness>
         </element>
         <element id="8188">
            <thickness> 1.0000000e-02, 1.0000000e-02, 1.0000000e-02</thickness>
         </element>
         <element id="8189">
            <thickness> 1.0000000e-02, 1.0000000e-02, 1.0000000e-02</thickness>
         </element>
         <element id="8190">
            <thickness> 1.0000000e-02, 1.0000000e-02, 1.0000000e-02</thickness>
         </element>
         <element id="8191">
            <thickness> 1.0000000e-02, 1.0000000e-02, 1.0000000e-02</thickness>
         </element>
         <element id="8192">
            <thickness> 1.0000000e-02, 1.0000000e-02, 1.0000000e-02</thickness>
         </element>
         <element id="8193">
            <thickness> 1.0000000e-02, 1.0000000e-02, 1.0000000e-02</thickness>
         </element>
         <element id="8194">
            <thickness> 1.0000000e-02, 1.0000000e-02, 1.0000000e-02</thickness>
         </element>
         <element id="8195">
            <thickness> 1.0000000e-02, 1.0000000e-02, 1.0000000e-02</thickness>
         </element>
         <element id="8196">
            <thickness> 1.0000000e-02, 1.0000000e-02, 1.0000000e-02</thickness>
         </element>
         <element id="8197">
            <thickness> 1.0000000e-02, 1.0000000e-02, 1.0000000e-02</thickness>
         </element>
         <element id="8198">
            <thickness> 1.0000000e-02, 1.0000000e-02, 1.0000000e-02</thickness>
         </element>
         <element id="8199">
            <thickness> 1.0000000e-02, 1.0000000e-02, 1.0000000e-02</thickness>
         </element>
         <element id="8200">
            <thickness> 1.0000000e-02, 1.0000000e-02, 1.0000000e-02</thickness>
         </element>
         <element id="8201">
            <thickness> 1.0000000e-02, 1.0000000e-02, 1.0000000e-02</thickness>
         </element>
         <element id="8202">
            <thickness> 1.0000000e-02, 1.0000000e-02, 1.0000000e-02</thickness>
         </element>
         <element id="8203">
            <thickness> 1.0000000e-02, 1.0000000e-02, 1.0000000e-02</thickness>
         </element>
         <element id="8204">
            <thickness> 1.0000000e-02, 1.0000000e-02, 1.0000000e-02</thickness>
         </element>
         <element id="8205">
            <thickness> 1.0000000e-02, 1.0000000e-02, 1.0000000e-02</thickness>
         </element>
         <element id="8206">
            <thickness> 1.0000000e-02, 1.0000000e-02, 1.0000000e-02</thickness>
         </element>
         <element id="8207">
            <thickness> 1.0000000e-02, 1.0000000e-02, 1.0000000e-02</thickness>
         </element>
         <element id="8208">
            <thickness> 1.0000000e-02, 1.0000000e-02, 1.0000000e-02</thickness>
         </element>
         <element id="8209">
            <thickness> 1.0000000e-02, 1.0000000e-02, 1.0000000e-02</thickness>
         </element>
         <element id="8210">
            <thickness> 1.0000000e-02, 1.0000000e-02, 1.0000000e-02</thickness>
         </element>
         <element id="8211">
            <thickness> 1.0000000e-02, 1.0000000e-02, 1.0000000e-02</thickness>
         </element>
         <element id="8212">
            <thickness> 1.0000000e-02, 1.0000000e-02, 1.0000000e-02</thickness>
         </element>
         <element id="8213">
            <thickness> 1.0000000e-02, 1.0000000e-02, 1.0000000e-02</thickness>
         </element>
         <element id="8214">
            <thickness> 1.0000000e-02, 1.0000000e-02, 1.0000000e-02</thickness>
         </element>
         <element id="8215">
            <thickness> 1.0000000e-02, 1.0000000e-02, 1.0000000e-02</thickness>
         </element>
         <element id="8216">
            <thickness> 1.0000000e-02, 1.0000000e-02, 1.0000000e-02</thickness>
         </element>
         <element id="8217">
            <thickness> 1.0000000e-02, 1.0000000e-02, 1.0000000e-02</thickness>
         </element>
         <element id="8218">
            <thickness> 1.0000000e-02, 1.0000000e-02, 1.0000000e-02</thickness>
         </element>
         <element id="8219">
            <thickness> 1.0000000e-02, 1.0000000e-02, 1.0000000e-02</thickness>
         </element>
         <element id="8220">
            <thickness> 1.0000000e-02, 1.0000000e-02, 1.0000000e-02</thickness>
         </element>
         <element id="8221">
            <thickness> 1.0000000e-02, 1.0000000e-02, 1.0000000e-02</thickness>
         </element>
         <element id="8222">
            <thickness> 1.0000000e-02, 1.0000000e-02, 1.0000000e-02</thickness>
         </element>
         <element id="8223">
            <thickness> 1.0000000e-02, 1.0000000e-02, 1.0000000e-02</thickness>
         </element>
         <element id="8224">
            <thickness> 1.0000000e-02, 1.0000000e-02, 1.0000000e-02</thickness>
         </element>
         <element id="8225">
            <thickness> 1.0000000e-02, 1.0000000e-02, 1.0000000e-02</thickness>
         </element>
         <element id="8226">
            <thickness> 1.0000000e-02, 1.0000000e-02, 1.0000000e-02</thickness>
         </element>
         <element id="8227">
            <thickness> 1.0000000e-02, 1.0000000e-02, 1.0000000e-02</thickness>
         </element>
         <element id="8228">
            <thickness> 1.0000000e-02, 1.0000000e-02, 1.0000000e-02</thickness>
         </element>
         <element id="8229">
            <thickness> 1.0000000e-02, 1.0000000e-02, 1.0000000e-02</thickness>
         </element>
         <element id="8230">
            <thickness> 1.0000000e-02, 1.0000000e-02, 1.0000000e-02</thickness>
         </element>
         <element id="8231">
            <thickness> 1.0000000e-02, 1.0000000e-02, 1.0000000e-02</thickness>
         </element>
         <element id="8232">
            <thickness> 1.0000000e-02, 1.0000000e-02, 1.0000000e-02</thickness>
         </element>
         <element id="8233">
            <thickness> 1.0000000e-02, 1.0000000e-02, 1.0000000e-02</thickness>
         </element>
         <element id="8234">
            <thickness> 1.0000000e-02, 1.0000000e-02, 1.0000000e-02</thickness>
         </element>
         <element id="8235">
            <thickness> 1.0000000e-02, 1.0000000e-02, 1.0000000e-02</thickness>
         </element>
         <element id="8236">
            <thickness> 1.0000000e-02, 1.0000000e-02, 1.0000000e-02</thickness>
         </element>
         <element id="8237">
            <thickness> 1.0000000e-02, 1.0000000e-02, 1.0000000e-02</thickness>
         </element>
         <element id="8238">
            <thickness> 1.0000000e-02, 1.0000000e-02, 1.0000000e-02</thickness>
         </element>
         <element id="8239">
            <thickness> 1.0000000e-02, 1.0000000e-02, 1.0000000e-02</thickness>
         </element>
         <element id="8240">
            <thickness> 1.0000000e-02, 1.0000000e-02, 1.0000000e-02</thickness>
         </element>
         <element id="8241">
            <thickness> 1.0000000e-02, 1.0000000e-02, 1.0000000e-02</thickness>
         </element>
         <element id="8242">
            <thickness> 1.0000000e-02, 1.0000000e-02, 1.0000000e-02</thickness>
         </element>
         <element id="8243">
            <thickness> 1.0000000e-02, 1.0000000e-02, 1.0000000e-02</thickness>
         </element>
         <element id="8244">
            <thickness> 1.0000000e-02, 1.0000000e-02, 1.0000000e-02</thickness>
         </element>
         <element id="8245">
            <thickness> 1.0000000e-02, 1.0000000e-02, 1.0000000e-02</thickness>
         </element>
         <element id="8246">
            <thickness> 1.0000000e-02, 1.0000000e-02, 1.0000000e-02</thickness>
         </element>
         <element id="8247">
            <thickness> 1.0000000e-02, 1.0000000e-02, 1.0000000e-02</thickness>
         </element>
         <element id="8248">
            <thickness> 1.0000000e-02, 1.0000000e-02, 1.0000000e-02</thickness>
         </element>
         <element id="8249">
            <thickness> 1.0000000e-02, 1.0000000e-02, 1.0000000e-02</thickness>
         </element>
         <element id="8250">
            <thickness> 1.0000000e-02, 1.0000000e-02, 1.0000000e-02</thickness>
         </element>
         <element id="8251">
            <thickness> 1.0000000e-02, 1.0000000e-02, 1.0000000e-02</thickness>
         </element>
         <element id="8252">
            <thickness> 1.0000000e-02, 1.0000000e-02, 1.0000000e-02</thickness>
         </element>
         <element id="8253">
            <thickness> 1.0000000e-02, 1.0000000e-02, 1.0000000e-02</thickness>
         </element>
         <element id="8254">
            <thickness> 1.0000000e-02, 1.0000000e-02, 1.0000000e-02</thickness>
         </element>
         <element id="8255">
            <thickness> 1.0000000e-02, 1.0000000e-02, 1.0000000e-02</thickness>
         </element>
         <element id="8256">
            <thickness> 1.0000000e-02, 1.0000000e-02, 1.0000000e-02</thickness>
         </element>
         <element id="8257">
            <thickness> 1.0000000e-02, 1.0000000e-02, 1.0000000e-02</thickness>
         </element>
         <element id="8258">
            <thickness> 1.0000000e-02, 1.0000000e-02, 1.0000000e-02</thickness>
         </element>
         <element id="8259">
            <thickness> 1.0000000e-02, 1.0000000e-02, 1.0000000e-02</thickness>
         </element>
         <element id="8260">
            <thickness> 1.0000000e-02, 1.0000000e-02, 1.0000000e-02</thickness>
         </element>
         <element id="8261">
            <thickness> 1.0000000e-02, 1.0000000e-02, 1.0000000e-02</thickness>
         </element>
         <element id="8262">
            <thickness> 1.0000000e-02, 1.0000000e-02, 1.0000000e-02</thickness>
         </element>
         <element id="8263">
            <thickness> 1.0000000e-02, 1.0000000e-02, 1.0000000e-02</thickness>
         </element>
         <element id="8264">
            <thickness> 1.0000000e-02, 1.0000000e-02, 1.0000000e-02</thickness>
         </element>
         <element id="8265">
            <thickness> 1.0000000e-02, 1.0000000e-02, 1.0000000e-02</thickness>
         </element>
         <element id="8266">
            <thickness> 1.0000000e-02, 1.0000000e-02, 1.0000000e-02</thickness>
         </element>
         <element id="8267">
            <thickness> 1.0000000e-02, 1.0000000e-02, 1.0000000e-02</thickness>
         </element>
         <element id="8268">
            <thickness> 1.0000000e-02, 1.0000000e-02, 1.0000000e-02</thickness>
         </element>
         <element id="8269">
            <thickness> 1.0000000e-02, 1.0000000e-02, 1.0000000e-02</thickness>
         </element>
         <element id="8270">
            <thickness> 1.0000000e-02, 1.0000000e-02, 1.0000000e-02</thickness>
         </element>
         <element id="8271">
            <thickness> 1.0000000e-02, 1.0000000e-02, 1.0000000e-02</thickness>
         </element>
         <element id="8272">
            <thickness> 1.0000000e-02, 1.0000000e-02, 1.0000000e-02</thickness>
         </element>
         <element id="8273">
            <thickness> 1.0000000e-02, 1.0000000e-02, 1.0000000e-02</thickness>
         </element>
         <element id="8274">
            <thickness> 1.0000000e-02, 1.0000000e-02, 1.0000000e-02</thickness>
         </element>
         <element id="8275">
            <thickness> 1.0000000e-02, 1.0000000e-02, 1.0000000e-02</thickness>
         </element>
         <element id="8276">
            <thickness> 1.0000000e-02, 1.0000000e-02, 1.0000000e-02</thickness>
         </element>
         <element id="8277">
            <thickness> 1.0000000e-02, 1.0000000e-02, 1.0000000e-02</thickness>
         </element>
         <element id="8278">
            <thickness> 1.0000000e-02, 1.0000000e-02, 1.0000000e-02</thickness>
         </element>
         <element id="8279">
            <thickness> 1.0000000e-02, 1.0000000e-02, 1.0000000e-02</thickness>
         </element>
         <element id="8280">
            <thickness> 1.0000000e-02, 1.0000000e-02, 1.0000000e-02</thickness>
         </element>
         <element id="8281">
            <thickness> 1.0000000e-02, 1.0000000e-02, 1.0000000e-02</thickness>
         </element>
         <element id="8282">
            <thickness> 1.0000000e-02, 1.0000000e-02, 1.0000000e-02</thickness>
         </element>
         <element id="8283">
            <thickness> 1.0000000e-02, 1.0000000e-02, 1.0000000e-02</thickness>
         </element>
         <element id="8284">
            <thickness> 1.0000000e-02, 1.0000000e-02, 1.0000000e-02</thickness>
         </element>
         <element id="8285">
            <thickness> 1.0000000e-02, 1.0000000e-02, 1.0000000e-02</thickness>
         </element>
         <element id="8286">
            <thickness> 1.0000000e-02, 1.0000000e-02, 1.0000000e-02</thickness>
         </element>
         <element id="8287">
            <thickness> 1.0000000e-02, 1.0000000e-02, 1.0000000e-02</thickness>
         </element>
         <element id="8288">
            <thickness> 1.0000000e-02, 1.0000000e-02, 1.0000000e-02</thickness>
         </element>
         <element id="8289">
            <thickness> 1.0000000e-02, 1.0000000e-02, 1.0000000e-02</thickness>
         </element>
         <element id="8290">
            <thickness> 1.0000000e-02, 1.0000000e-02, 1.0000000e-02</thickness>
         </element>
         <element id="8291">
            <thickness> 1.0000000e-02, 1.0000000e-02, 1.0000000e-02</thickness>
         </element>
         <element id="8292">
            <thickness> 1.0000000e-02, 1.0000000e-02, 1.0000000e-02</thickness>
         </element>
         <element id="8293">
            <thickness> 1.0000000e-02, 1.0000000e-02, 1.0000000e-02</thickness>
         </element>
         <element id="8294">
            <thickness> 1.0000000e-02, 1.0000000e-02, 1.0000000e-02</thickness>
         </element>
         <element id="8295">
            <thickness> 1.0000000e-02, 1.0000000e-02, 1.0000000e-02</thickness>
         </element>
         <element id="8296">
            <thickness> 1.0000000e-02, 1.0000000e-02, 1.0000000e-02</thickness>
         </element>
         <element id="8297">
            <thickness> 1.0000000e-02, 1.0000000e-02, 1.0000000e-02</thickness>
         </element>
         <element id="8298">
            <thickness> 1.0000000e-02, 1.0000000e-02, 1.0000000e-02</thickness>
         </element>
         <element id="8299">
            <thickness> 1.0000000e-02, 1.0000000e-02, 1.0000000e-02</thickness>
         </element>
         <element id="8300">
            <thickness> 1.0000000e-02, 1.0000000e-02, 1.0000000e-02</thickness>
         </element>
         <element id="8301">
            <thickness> 1.0000000e-02, 1.0000000e-02, 1.0000000e-02</thickness>
         </element>
         <element id="8302">
            <thickness> 1.0000000e-02, 1.0000000e-02, 1.0000000e-02</thickness>
         </element>
         <element id="8303">
            <thickness> 1.0000000e-02, 1.0000000e-02, 1.0000000e-02</thickness>
         </element>
         <element id="8304">
            <thickness> 1.0000000e-02, 1.0000000e-02, 1.0000000e-02</thickness>
         </element>
         <element id="8305">
            <thickness> 1.0000000e-02, 1.0000000e-02, 1.0000000e-02</thickness>
         </element>
         <element id="8306">
            <thickness> 1.0000000e-02, 1.0000000e-02, 1.0000000e-02</thickness>
         </element>
         <element id="8307">
            <thickness> 1.0000000e-02, 1.0000000e-02, 1.0000000e-02</thickness>
         </element>
         <element id="8308">
            <thickness> 1.0000000e-02, 1.0000000e-02, 1.0000000e-02</thickness>
         </element>
         <element id="8309">
            <thickness> 1.0000000e-02, 1.0000000e-02, 1.0000000e-02</thickness>
         </element>
         <element id="8310">
            <thickness> 1.0000000e-02, 1.0000000e-02, 1.0000000e-02</thickness>
         </element>
         <element id="8311">
            <thickness> 1.0000000e-02, 1.0000000e-02, 1.0000000e-02</thickness>
         </element>
         <element id="8312">
            <thickness> 1.0000000e-02, 1.0000000e-02, 1.0000000e-02</thickness>
         </element>
         <element id="8313">
            <thickness> 1.0000000e-02, 1.0000000e-02, 1.0000000e-02</thickness>
         </element>
         <element id="8314">
            <thickness> 1.0000000e-02, 1.0000000e-02, 1.0000000e-02</thickness>
         </element>
         <element id="8315">
            <thickness> 1.0000000e-02, 1.0000000e-02, 1.0000000e-02</thickness>
         </element>
         <element id="8316">
            <thickness> 1.0000000e-02, 1.0000000e-02, 1.0000000e-02</thickness>
         </element>
         <element id="8317">
            <thickness> 1.0000000e-02, 1.0000000e-02, 1.0000000e-02</thickness>
         </element>
         <element id="8318">
            <thickness> 1.0000000e-02, 1.0000000e-02, 1.0000000e-02</thickness>
         </element>
         <element id="8319">
            <thickness> 1.0000000e-02, 1.0000000e-02, 1.0000000e-02</thickness>
         </element>
         <element id="8320">
            <thickness> 1.0000000e-02, 1.0000000e-02, 1.0000000e-02</thickness>
         </element>
         <element id="8321">
            <thickness> 1.0000000e-02, 1.0000000e-02, 1.0000000e-02</thickness>
         </element>
         <element id="8322">
            <thickness> 1.0000000e-02, 1.0000000e-02, 1.0000000e-02</thickness>
         </element>
         <element id="8323">
            <thickness> 1.0000000e-02, 1.0000000e-02, 1.0000000e-02</thickness>
         </element>
         <element id="8324">
            <thickness> 1.0000000e-02, 1.0000000e-02, 1.0000000e-02</thickness>
         </element>
         <element id="8325">
            <thickness> 1.0000000e-02, 1.0000000e-02, 1.0000000e-02</thickness>
         </element>
         <element id="8326">
            <thickness> 1.0000000e-02, 1.0000000e-02, 1.0000000e-02</thickness>
         </element>
         <element id="8327">
            <thickness> 1.0000000e-02, 1.0000000e-02, 1.0000000e-02</thickness>
         </element>
         <element id="8328">
            <thickness> 1.0000000e-02, 1.0000000e-02, 1.0000000e-02</thickness>
         </element>
         <element id="8329">
            <thickness> 1.0000000e-02, 1.0000000e-02, 1.0000000e-02</thickness>
         </element>
         <element id="8330">
            <thickness> 1.0000000e-02, 1.0000000e-02, 1.0000000e-02</thickness>
         </element>
         <element id="8331">
            <thickness> 1.0000000e-02, 1.0000000e-02, 1.0000000e-02</thickness>
         </element>
         <element id="8332">
            <thickness> 1.0000000e-02, 1.0000000e-02, 1.0000000e-02</thickness>
         </element>
         <element id="8333">
            <thickness> 1.0000000e-02, 1.0000000e-02, 1.0000000e-02</thickness>
         </element>
         <element id="8334">
            <thickness> 1.0000000e-02, 1.0000000e-02, 1.0000000e-02</thickness>
         </element>
         <element id="8335">
            <thickness> 1.0000000e-02, 1.0000000e-02, 1.0000000e-02</thickness>
         </element>
         <element id="8336">
            <thickness> 1.0000000e-02, 1.0000000e-02, 1.0000000e-02</thickness>
         </element>
         <element id="8337">
            <thickness> 1.0000000e-02, 1.0000000e-02, 1.0000000e-02</thickness>
         </element>
         <element id="8338">
            <thickness> 1.0000000e-02, 1.0000000e-02, 1.0000000e-02</thickness>
         </element>
         <element id="8339">
            <thickness> 1.0000000e-02, 1.0000000e-02, 1.0000000e-02</thickness>
         </element>
         <element id="8340">
            <thickness> 1.0000000e-02, 1.0000000e-02, 1.0000000e-02</thickness>
         </element>
         <element id="8341">
            <thickness> 1.0000000e-02, 1.0000000e-02, 1.0000000e-02</thickness>
         </element>
         <element id="8342">
            <thickness> 1.0000000e-02, 1.0000000e-02, 1.0000000e-02</thickness>
         </element>
         <element id="8343">
            <thickness> 1.0000000e-02, 1.0000000e-02, 1.0000000e-02</thickness>
         </element>
         <element id="8344">
            <thickness> 1.0000000e-02, 1.0000000e-02, 1.0000000e-02</thickness>
         </element>
         <element id="8345">
            <thickness> 1.0000000e-02, 1.0000000e-02, 1.0000000e-02</thickness>
         </element>
         <element id="8346">
            <thickness> 1.0000000e-02, 1.0000000e-02, 1.0000000e-02</thickness>
         </element>
         <element id="8347">
            <thickness> 1.0000000e-02, 1.0000000e-02, 1.0000000e-02</thickness>
         </element>
         <element id="8348">
            <thickness> 1.0000000e-02, 1.0000000e-02, 1.0000000e-02</thickness>
         </element>
         <element id="8349">
            <thickness> 1.0000000e-02, 1.0000000e-02, 1.0000000e-02</thickness>
         </element>
         <element id="8350">
            <thickness> 1.0000000e-02, 1.0000000e-02, 1.0000000e-02</thickness>
         </element>
         <element id="8351">
            <thickness> 1.0000000e-02, 1.0000000e-02, 1.0000000e-02</thickness>
         </element>
         <element id="8352">
            <thickness> 1.0000000e-02, 1.0000000e-02, 1.0000000e-02</thickness>
         </element>
         <element id="8353">
            <thickness> 1.0000000e-02, 1.0000000e-02, 1.0000000e-02</thickness>
         </element>
         <element id="8354">
            <thickness> 1.0000000e-02, 1.0000000e-02, 1.0000000e-02</thickness>
         </element>
         <element id="8355">
            <thickness> 1.0000000e-02, 1.0000000e-02, 1.0000000e-02</thickness>
         </element>
         <element id="8356">
            <thickness> 1.0000000e-02, 1.0000000e-02, 1.0000000e-02</thickness>
         </element>
         <element id="8357">
            <thickness> 1.0000000e-02, 1.0000000e-02, 1.0000000e-02</thickness>
         </element>
         <element id="8358">
            <thickness> 1.0000000e-02, 1.0000000e-02, 1.0000000e-02</thickness>
         </element>
         <element id="8359">
            <thickness> 1.0000000e-02, 1.0000000e-02, 1.0000000e-02</thickness>
         </element>
         <element id="8360">
            <thickness> 1.0000000e-02, 1.0000000e-02, 1.0000000e-02</thickness>
         </element>
         <element id="8361">
            <thickness> 1.0000000e-02, 1.0000000e-02, 1.0000000e-02</thickness>
         </element>
         <element id="8362">
            <thickness> 1.0000000e-02, 1.0000000e-02, 1.0000000e-02</thickness>
         </element>
         <element id="8363">
            <thickness> 1.0000000e-02, 1.0000000e-02, 1.0000000e-02</thickness>
         </element>
         <element id="8364">
            <thickness> 1.0000000e-02, 1.0000000e-02, 1.0000000e-02</thickness>
         </element>
         <element id="8365">
            <thickness> 1.0000000e-02, 1.0000000e-02, 1.0000000e-02</thickness>
         </element>
         <element id="8366">
            <thickness> 1.0000000e-02, 1.0000000e-02, 1.0000000e-02</thickness>
         </element>
         <element id="8367">
            <thickness> 1.0000000e-02, 1.0000000e-02, 1.0000000e-02</thickness>
         </element>
         <element id="8368">
            <thickness> 1.0000000e-02, 1.0000000e-02, 1.0000000e-02</thickness>
         </element>
         <element id="8369">
            <thickness> 1.0000000e-02, 1.0000000e-02, 1.0000000e-02</thickness>
         </element>
         <element id="8370">
            <thickness> 1.0000000e-02, 1.0000000e-02, 1.0000000e-02</thickness>
         </element>
         <element id="8371">
            <thickness> 1.0000000e-02, 1.0000000e-02, 1.0000000e-02</thickness>
         </element>
         <element id="8372">
            <thickness> 1.0000000e-02, 1.0000000e-02, 1.0000000e-02</thickness>
         </element>
         <element id="8373">
            <thickness> 1.0000000e-02, 1.0000000e-02, 1.0000000e-02</thickness>
         </element>
         <element id="8374">
            <thickness> 1.0000000e-02, 1.0000000e-02, 1.0000000e-02</thickness>
         </element>
         <element id="8375">
            <thickness> 1.0000000e-02, 1.0000000e-02, 1.0000000e-02</thickness>
         </element>
         <element id="8376">
            <thickness> 1.0000000e-02, 1.0000000e-02, 1.0000000e-02</thickness>
         </element>
         <element id="8377">
            <thickness> 1.0000000e-02, 1.0000000e-02, 1.0000000e-02</thickness>
         </element>
         <element id="8378">
            <thickness> 1.0000000e-02, 1.0000000e-02, 1.0000000e-02</thickness>
         </element>
         <element id="8379">
            <thickness> 1.0000000e-02, 1.0000000e-02, 1.0000000e-02</thickness>
         </element>
         <element id="8380">
            <thickness> 1.0000000e-02, 1.0000000e-02, 1.0000000e-02</thickness>
         </element>
         <element id="8381">
            <thickness> 1.0000000e-02, 1.0000000e-02, 1.0000000e-02</thickness>
         </element>
         <element id="8382">
            <thickness> 1.0000000e-02, 1.0000000e-02, 1.0000000e-02</thickness>
         </element>
         <element id="8383">
            <thickness> 1.0000000e-02, 1.0000000e-02, 1.0000000e-02</thickness>
         </element>
         <element id="8384">
            <thickness> 1.0000000e-02, 1.0000000e-02, 1.0000000e-02</thickness>
         </element>
         <element id="8385">
            <thickness> 1.0000000e-02, 1.0000000e-02, 1.0000000e-02</thickness>
         </element>
         <element id="8386">
            <thickness> 1.0000000e-02, 1.0000000e-02, 1.0000000e-02</thickness>
         </element>
         <element id="8387">
            <thickness> 1.0000000e-02, 1.0000000e-02, 1.0000000e-02</thickness>
         </element>
         <element id="8388">
            <thickness> 1.0000000e-02, 1.0000000e-02, 1.0000000e-02</thickness>
         </element>
         <element id="8389">
            <thickness> 1.0000000e-02, 1.0000000e-02, 1.0000000e-02</thickness>
         </element>
         <element id="8390">
            <thickness> 1.0000000e-02, 1.0000000e-02, 1.0000000e-02</thickness>
         </element>
         <element id="8391">
            <thickness> 1.0000000e-02, 1.0000000e-02, 1.0000000e-02</thickness>
         </element>
         <element id="8392">
            <thickness> 1.0000000e-02, 1.0000000e-02, 1.0000000e-02</thickness>
         </element>
         <element id="8393">
            <thickness> 1.0000000e-02, 1.0000000e-02, 1.0000000e-02</thickness>
         </element>
         <element id="8394">
            <thickness> 1.0000000e-02, 1.0000000e-02, 1.0000000e-02</thickness>
         </element>
         <element id="8395">
            <thickness> 1.0000000e-02, 1.0000000e-02, 1.0000000e-02</thickness>
         </element>
         <element id="8396">
            <thickness> 1.0000000e-02, 1.0000000e-02, 1.0000000e-02</thickness>
         </element>
         <element id="8397">
            <thickness> 1.0000000e-02, 1.0000000e-02, 1.0000000e-02</thickness>
         </element>
         <element id="8398">
            <thickness> 1.0000000e-02, 1.0000000e-02, 1.0000000e-02</thickness>
         </element>
         <element id="8399">
            <thickness> 1.0000000e-02, 1.0000000e-02, 1.0000000e-02</thickness>
         </element>
         <element id="8400">
            <thickness> 1.0000000e-02, 1.0000000e-02, 1.0000000e-02</thickness>
         </element>
         <element id="8401">
            <thickness> 1.0000000e-02, 1.0000000e-02, 1.0000000e-02</thickness>
         </element>
         <element id="8402">
            <thickness> 1.0000000e-02, 1.0000000e-02, 1.0000000e-02</thickness>
         </element>
         <element id="8403">
            <thickness> 1.0000000e-02, 1.0000000e-02, 1.0000000e-02</thickness>
         </element>
         <element id="8404">
            <thickness> 1.0000000e-02, 1.0000000e-02, 1.0000000e-02</thickness>
         </element>
         <element id="8405">
            <thickness> 1.0000000e-02, 1.0000000e-02, 1.0000000e-02</thickness>
         </element>
         <element id="8406">
            <thickness> 1.0000000e-02, 1.0000000e-02, 1.0000000e-02</thickness>
         </element>
         <element id="8407">
            <thickness> 1.0000000e-02, 1.0000000e-02, 1.0000000e-02</thickness>
         </element>
         <element id="8408">
            <thickness> 1.0000000e-02, 1.0000000e-02, 1.0000000e-02</thickness>
         </element>
         <element id="8409">
            <thickness> 1.0000000e-02, 1.0000000e-02, 1.0000000e-02</thickness>
         </element>
         <element id="8410">
            <thickness> 1.0000000e-02, 1.0000000e-02, 1.0000000e-02</thickness>
         </element>
         <element id="8411">
            <thickness> 1.0000000e-02, 1.0000000e-02, 1.0000000e-02</thickness>
         </element>
         <element id="8412">
            <thickness> 1.0000000e-02, 1.0000000e-02, 1.0000000e-02</thickness>
         </element>
         <element id="8413">
            <thickness> 1.0000000e-02, 1.0000000e-02, 1.0000000e-02</thickness>
         </element>
         <element id="8414">
            <thickness> 1.0000000e-02, 1.0000000e-02, 1.0000000e-02</thickness>
         </element>
         <element id="8415">
            <thickness> 1.0000000e-02, 1.0000000e-02, 1.0000000e-02</thickness>
         </element>
         <element id="8416">
            <thickness> 1.0000000e-02, 1.0000000e-02, 1.0000000e-02</thickness>
         </element>
         <element id="8417">
            <thickness> 1.0000000e-02, 1.0000000e-02, 1.0000000e-02</thickness>
         </element>
         <element id="8418">
            <thickness> 1.0000000e-02, 1.0000000e-02, 1.0000000e-02</thickness>
         </element>
         <element id="8419">
            <thickness> 1.0000000e-02, 1.0000000e-02, 1.0000000e-02</thickness>
         </element>
         <element id="8420">
            <thickness> 1.0000000e-02, 1.0000000e-02, 1.0000000e-02</thickness>
         </element>
         <element id="8421">
            <thickness> 1.0000000e-02, 1.0000000e-02, 1.0000000e-02</thickness>
         </element>
         <element id="8422">
            <thickness> 1.0000000e-02, 1.0000000e-02, 1.0000000e-02</thickness>
         </element>
         <element id="8423">
            <thickness> 1.0000000e-02, 1.0000000e-02, 1.0000000e-02</thickness>
         </element>
         <element id="8424">
            <thickness> 1.0000000e-02, 1.0000000e-02, 1.0000000e-02</thickness>
         </element>
         <element id="8425">
            <thickness> 1.0000000e-02, 1.0000000e-02, 1.0000000e-02</thickness>
         </element>
         <element id="8426">
            <thickness> 1.0000000e-02, 1.0000000e-02, 1.0000000e-02</thickness>
         </element>
         <element id="8427">
            <thickness> 1.0000000e-02, 1.0000000e-02, 1.0000000e-02</thickness>
         </element>
         <element id="8428">
            <thickness> 1.0000000e-02, 1.0000000e-02, 1.0000000e-02</thickness>
         </element>
         <element id="8429">
            <thickness> 1.0000000e-02, 1.0000000e-02, 1.0000000e-02</thickness>
         </element>
         <element id="8430">
            <thickness> 1.0000000e-02, 1.0000000e-02, 1.0000000e-02</thickness>
         </element>
         <element id="8431">
            <thickness> 1.0000000e-02, 1.0000000e-02, 1.0000000e-02</thickness>
         </element>
         <element id="8432">
            <thickness> 1.0000000e-02, 1.0000000e-02, 1.0000000e-02</thickness>
         </element>
         <element id="8433">
            <thickness> 1.0000000e-02, 1.0000000e-02, 1.0000000e-02</thickness>
         </element>
         <element id="8434">
            <thickness> 1.0000000e-02, 1.0000000e-02, 1.0000000e-02</thickness>
         </element>
         <element id="8435">
            <thickness> 1.0000000e-02, 1.0000000e-02, 1.0000000e-02</thickness>
         </element>
         <element id="8436">
            <thickness> 1.0000000e-02, 1.0000000e-02, 1.0000000e-02</thickness>
         </element>
         <element id="8437">
            <thickness> 1.0000000e-02, 1.0000000e-02, 1.0000000e-02</thickness>
         </element>
         <element id="8438">
            <thickness> 1.0000000e-02, 1.0000000e-02, 1.0000000e-02</thickness>
         </element>
         <element id="8439">
            <thickness> 1.0000000e-02, 1.0000000e-02, 1.0000000e-02</thickness>
         </element>
         <element id="8440">
            <thickness> 1.0000000e-02, 1.0000000e-02, 1.0000000e-02</thickness>
         </element>
         <element id="8441">
            <thickness> 1.0000000e-02, 1.0000000e-02, 1.0000000e-02</thickness>
         </element>
         <element id="8442">
            <thickness> 1.0000000e-02, 1.0000000e-02, 1.0000000e-02</thickness>
         </element>
         <element id="8443">
            <thickness> 1.0000000e-02, 1.0000000e-02, 1.0000000e-02</thickness>
         </element>
         <element id="8444">
            <thickness> 1.0000000e-02, 1.0000000e-02, 1.0000000e-02</thickness>
         </element>
         <element id="8445">
            <thickness> 1.0000000e-02, 1.0000000e-02, 1.0000000e-02</thickness>
         </element>
         <element id="8446">
            <thickness> 1.0000000e-02, 1.0000000e-02, 1.0000000e-02</thickness>
         </element>
         <element id="8447">
            <thickness> 1.0000000e-02, 1.0000000e-02, 1.0000000e-02</thickness>
         </element>
         <element id="8448">
            <thickness> 1.0000000e-02, 1.0000000e-02, 1.0000000e-02</thickness>
         </element>
         <element id="8449">
            <thickness> 1.0000000e-02, 1.0000000e-02, 1.0000000e-02</thickness>
         </element>
         <element id="8450">
            <thickness> 1.0000000e-02, 1.0000000e-02, 1.0000000e-02</thickness>
         </element>
         <element id="8451">
            <thickness> 1.0000000e-02, 1.0000000e-02, 1.0000000e-02</thickness>
         </element>
         <element id="8452">
            <thickness> 1.0000000e-02, 1.0000000e-02, 1.0000000e-02</thickness>
         </element>
         <element id="8453">
            <thickness> 1.0000000e-02, 1.0000000e-02, 1.0000000e-02</thickness>
         </element>
         <element id="8454">
            <thickness> 1.0000000e-02, 1.0000000e-02, 1.0000000e-02</thickness>
         </element>
         <element id="8455">
            <thickness> 1.0000000e-02, 1.0000000e-02, 1.0000000e-02</thickness>
         </element>
         <element id="8456">
            <thickness> 1.0000000e-02, 1.0000000e-02, 1.0000000e-02</thickness>
         </element>
         <element id="8457">
            <thickness> 1.0000000e-02, 1.0000000e-02, 1.0000000e-02</thickness>
         </element>
         <element id="8458">
            <thickness> 1.0000000e-02, 1.0000000e-02, 1.0000000e-02</thickness>
         </element>
         <element id="8459">
            <thickness> 1.0000000e-02, 1.0000000e-02, 1.0000000e-02</thickness>
         </element>
         <element id="8460">
            <thickness> 1.0000000e-02, 1.0000000e-02, 1.0000000e-02</thickness>
         </element>
         <element id="8461">
            <thickness> 1.0000000e-02, 1.0000000e-02, 1.0000000e-02</thickness>
         </element>
         <element id="8462">
            <thickness> 1.0000000e-02, 1.0000000e-02, 1.0000000e-02</thickness>
         </element>
         <element id="8463">
            <thickness> 1.0000000e-02, 1.0000000e-02, 1.0000000e-02</thickness>
         </element>
         <element id="8464">
            <thickness> 1.0000000e-02, 1.0000000e-02, 1.0000000e-02</thickness>
         </element>
         <element id="8465">
            <thickness> 1.0000000e-02, 1.0000000e-02, 1.0000000e-02</thickness>
         </element>
         <element id="8466">
            <thickness> 1.0000000e-02, 1.0000000e-02, 1.0000000e-02</thickness>
         </element>
         <element id="8467">
            <thickness> 1.0000000e-02, 1.0000000e-02, 1.0000000e-02</thickness>
         </element>
         <element id="8468">
            <thickness> 1.0000000e-02, 1.0000000e-02, 1.0000000e-02</thickness>
         </element>
         <element id="8469">
            <thickness> 1.0000000e-02, 1.0000000e-02, 1.0000000e-02</thickness>
         </element>
         <element id="8470">
            <thickness> 1.0000000e-02, 1.0000000e-02, 1.0000000e-02</thickness>
         </element>
         <element id="8471">
            <thickness> 1.0000000e-02, 1.0000000e-02, 1.0000000e-02</thickness>
         </element>
         <element id="8472">
            <thickness> 1.0000000e-02, 1.0000000e-02, 1.0000000e-02</thickness>
         </element>
         <element id="8473">
            <thickness> 1.0000000e-02, 1.0000000e-02, 1.0000000e-02</thickness>
         </element>
         <element id="8474">
            <thickness> 1.0000000e-02, 1.0000000e-02, 1.0000000e-02</thickness>
         </element>
         <element id="8475">
            <thickness> 1.0000000e-02, 1.0000000e-02, 1.0000000e-02</thickness>
         </element>
         <element id="8476">
            <thickness> 1.0000000e-02, 1.0000000e-02, 1.0000000e-02</thickness>
         </element>
         <element id="8477">
            <thickness> 1.0000000e-02, 1.0000000e-02, 1.0000000e-02</thickness>
         </element>
         <element id="8478">
            <thickness> 1.0000000e-02, 1.0000000e-02, 1.0000000e-02</thickness>
         </element>
         <element id="8479">
            <thickness> 1.0000000e-02, 1.0000000e-02, 1.0000000e-02</thickness>
         </element>
         <element id="8480">
            <thickness> 1.0000000e-02, 1.0000000e-02, 1.0000000e-02</thickness>
         </element>
         <element id="8481">
            <thickness> 1.0000000e-02, 1.0000000e-02, 1.0000000e-02</thickness>
         </element>
         <element id="8482">
            <thickness> 1.0000000e-02, 1.0000000e-02, 1.0000000e-02</thickness>
         </element>
         <element id="8483">
            <thickness> 1.0000000e-02, 1.0000000e-02, 1.0000000e-02</thickness>
         </element>
         <element id="8484">
            <thickness> 1.0000000e-02, 1.0000000e-02, 1.0000000e-02</thickness>
         </element>
         <element id="8485">
            <thickness> 1.0000000e-02, 1.0000000e-02, 1.0000000e-02</thickness>
         </element>
         <element id="8486">
            <thickness> 1.0000000e-02, 1.0000000e-02, 1.0000000e-02</thickness>
         </element>
         <element id="8487">
            <thickness> 1.0000000e-02, 1.0000000e-02, 1.0000000e-02</thickness>
         </element>
         <element id="8488">
            <thickness> 1.0000000e-02, 1.0000000e-02, 1.0000000e-02</thickness>
         </element>
         <element id="8489">
            <thickness> 1.0000000e-02, 1.0000000e-02, 1.0000000e-02</thickness>
         </element>
         <element id="8490">
            <thickness> 1.0000000e-02, 1.0000000e-02, 1.0000000e-02</thickness>
         </element>
         <element id="8491">
            <thickness> 1.0000000e-02, 1.0000000e-02, 1.0000000e-02</thickness>
         </element>
         <element id="8492">
            <thickness> 1.0000000e-02, 1.0000000e-02, 1.0000000e-02</thickness>
         </element>
         <element id="8493">
            <thickness> 1.0000000e-02, 1.0000000e-02, 1.0000000e-02</thickness>
         </element>
         <element id="8494">
            <thickness> 1.0000000e-02, 1.0000000e-02, 1.0000000e-02</thickness>
         </element>
         <element id="8495">
            <thickness> 1.0000000e-02, 1.0000000e-02, 1.0000000e-02</thickness>
         </element>
         <element id="8496">
            <thickness> 1.0000000e-02, 1.0000000e-02, 1.0000000e-02</thickness>
         </element>
         <element id="8497">
            <thickness> 1.0000000e-02, 1.0000000e-02, 1.0000000e-02</thickness>
         </element>
         <element id="8498">
            <thickness> 1.0000000e-02, 1.0000000e-02, 1.0000000e-02</thickness>
         </element>
         <element id="8499">
            <thickness> 1.0000000e-02, 1.0000000e-02, 1.0000000e-02</thickness>
         </element>
         <element id="8500">
            <thickness> 1.0000000e-02, 1.0000000e-02, 1.0000000e-02</thickness>
         </element>
         <element id="8501">
            <thickness> 1.0000000e-02, 1.0000000e-02, 1.0000000e-02</thickness>
         </element>
         <element id="8502">
            <thickness> 1.0000000e-02, 1.0000000e-02, 1.0000000e-02</thickness>
         </element>
         <element id="8503">
            <thickness> 1.0000000e-02, 1.0000000e-02, 1.0000000e-02</thickness>
         </element>
         <element id="8504">
            <thickness> 1.0000000e-02, 1.0000000e-02, 1.0000000e-02</thickness>
         </element>
         <element id="8505">
            <thickness> 1.0000000e-02, 1.0000000e-02, 1.0000000e-02</thickness>
         </element>
      </ElementData>
      <Surface name="Contact_master_indentor">
         <tri3 id="1">   11501,   11522,   11511</tri3>
         <tri3 id="2">   11492,   11491,   11484</tri3>
         <tri3 id="3">   11473,   11492,   11484</tri3>
         <tri3 id="4">   11465,   11473,   11484</tri3>
         <tri3 id="5">   11472,   11465,   11484</tri3>
         <tri3 id="6">   11616,   11618,   11600</tri3>
         <tri3 id="7">   11575,   11571,   11557</tri3>
         <tri3 id="8">   11576,   11560,   11561</tri3>
         <tri3 id="9">   11617,   11596,   11604</tri3>
         <tri3 id="10">   11571,   11546,   11557</tri3>
         <tri3 id="11">   11596,   11583,   11604</tri3>
         <tri3 id="12">   11546,   11542,   11557</tri3>
         <tri3 id="13">   11542,   11558,   11557</tri3>
         <tri3 id="14">   11543,   11547,   11561</tri3>
         <tri3 id="15">   11502,   11497,   11515</tri3>
         <tri3 id="16">   11622,   11617,   11604</tri3>
         <tri3 id="17">   11595,   11616,   11600</tri3>
         <tri3 id="18">   11558,   11575,   11557</tri3>
         <tri3 id="19">   11572,   11576,   11561</tri3>
         <tri3 id="20">   11522,   11532,   11511</tri3>
<!-- ... 396 like lines cut -->
      </Surface>
      <Surface name="Contact_slave_gel">
         <tri6 id="1">   284,   2433,   316,   2432,   274,   2327</tri6>
         <tri6 id="2">   4,   1501,   11,   1565,   33,   1564</tri6>
         <tri6 id="3">   55,   1634,   21,   1594,   43,   1636</tri6>
         <tri6 id="4">   43,   1594,   21,   1529,   4,   1593</tri6>
         <tri6 id="5">   41,   1664,   66,   1665,   51,   1622</tri6>
         <tri6 id="6">   92,   1796,   109,   1904,   146,   1903</tri6>
         <tri6 id="7">   66,   1666,   63,   1760,   98,   1761</tri6>
         <tri6 id="8">   254,   2233,   187,   2117,   216,   2234</tri6>
         <tri6 id="9">   109,   1980,   172,   1982,   146,   1904</tri6>
         <tri6 id="10">   37,   1706,   79,   1708,   59,   1645</tri6>
         <tri6 id="11">   303,   2499,   336,   2521,   342,   2518</tri6>
         <tri6 id="12">   37,   1576,   21,   1634,   55,   1635</tri6>
         <tri6 id="13">   59,   1794,   109,   1796,   92,   1743</tri6>
         <tri6 id="14">   172,   2179,   237,   2181,   212,   2104</tri6>
         <tri6 id="15">   237,   2296,   274,   2295,   212,   2181</tri6>
         <tri6 id="16">   172,   2104,   212,   2103,   146,   1982</tri6>
         <tri6 id="17">   79,   1706,   37,   1635,   55,   1707</tri6>
         <tri6 id="18">   109,   1794,   59,   1708,   79,   1795</tri6>
         <tri6 id="19">   33,   1595,   43,   1593,   4,   1564</tri6>
         <tri6 id="20">   25,   1567,   33,   1565,   11,   1539</tri6>
<!-- ... 341 like lines cut -->
      </Surface>
      <NodeSet name="indBC_fix">
         <node id="1"/>
         <node id="2"/>
         <node id="3"/>
         <node id="4"/>
         <node id="5"/>
         <node id="6"/>
         <node id="7"/>
         <node id="8"/>
         <node id="9"/>
         <node id="10"/>
         <node id="11"/>
         <node id="12"/>
         <node id="13"/>
         <node id="14"/>
         <node id="15"/>
         <node id="16"/>
         <node id="17"/>
         <node id="18"/>
         <node id="19"/>
         <node id="20"/>
<!-- ... 836 like lines cut -->
      </NodeSet>
   </Geometry>
   <Boundary>
      <fix bc="x" set="indBC_fix"/>
      <fix bc="y" set="indBC_fix"/>
      <fix bc="z" set="indBC_fix"/>
   </Boundary>
   <Contact>
      <contact type="sticky">
         <laugon>0.000000e+00</laugon>
         <tolerance>1.000000e-01</tolerance>
         <penalty>5.000000e+01</penalty>
         <minaug>0.000000e+00</minaug>
         <maxaug>1.000000e+01</maxaug>
         <search_tolerance>1.000000e-02</search_tolerance>
         <max_traction>0.000000e+00</max_traction>
         <snap_tol>1.000000e-02</snap_tol>
         <surface set="Contact_master_indentor" type="master"/>
         <surface set="Contact_slave_gel" type="slave"/>
      </contact>
   </Contact>
   <Constraints>
      <rigid_body mat="2">
         <fixed bc="Rx"/>
         <fixed bc="Ry"/>
         <fixed bc="Rz"/>
         <prescribed bc="x" lc="1">0.0000000e+00</prescribed>
         <prescribed bc="y" lc="1">0.0000000e+00</prescribed>
         <prescribed bc="z" lc="1">-1.5100000e+01</prescribed>
      </rigid_body>
   </Constraints>
   <LoadData>
      <loadcurve id="1" type="linear">
         <loadpoint>0.000000, 0.000000</loadpoint>
         <loadpoint>1.000000, 1.000000</loadpoint>
      </loadcurve>
   </LoadData>
   <Output>
      <plotfile type="febio">
         <var type="displacement"/>
         <var type="stress"/>
         <var type="relative volume"/>
      </plotfile>
      <logfile>
         <node_data data="ux;uy;uz" delim=", " file="tempModel1_node_out.txt"/>
      </logfile>
   </Output>
</febio_spec>
