<?xml version="1.0" encoding="utf-8"?>
<febio_spec version="2.0"><!--Created using GIBBON, 21-Apr-2015 22:28:51-->
   <Module type="solid"/>
   <Control>
      <time_steps>10.000000</time_steps>
      <step_size>0.100000</step_size>
      <max_refs>25.000000</max_refs>
      <max_ups>0.000000</max_ups>
      <dtol>0.001000</dtol>
      <etol>0.010000</etol>
      <rtol>0.000000</rtol>
      <lstol>0.900000</lstol>
      <analysis type="static"/>
      <time_stepper>
         <dtmin>0.000010</dtmin>
         <dtmax>0.100000</dtmax>
         <max_retries>5.000000</max_retries>
         <opt_iter>5.000000</opt_iter>
         <aggressiveness>1.000000</aggressiveness>
      </time_stepper>
   </Control>
   <Globals>
      <Constants>
         <T>0.0000000e+00</T>
         <R>0.0000000e+00</R>
         <Fc>0.0000000e+00</Fc>
      </Constants>
   </Globals>
   <Material>
      <material id="1" name="sphere_1_mat" type="Mooney-Rivlin">
         <c1>1.0000000e-03</c1>
         <c2>0.0000000e+00</c2>
         <k>1.0000000e+00</k>
      </material>
      <material id="2" name="mat_2" type="Mooney-Rivlin">
         <c1>2.0000000e-03</c1>
         <c2>0.0000000e+00</c2>
         <k>2.0000000e+00</k>
      </material>
   </Material>
   <Geometry>
      <Nodes>
         <node id="1">6.4383492e-17, -1.0514622e+00, -1.7013016e+00</node>
         <node id="2">6.4383492e-17, -1.0514622e+00, 1.7013016e+00</node>
         <node id="3">6.4383492e-17, 1.0514622e+00, 1.7013016e+00</node>
         <node id="4">6.4383492e-17, 1.0514622e+00, -1.7013016e+00</node>
         <node id="5">-1.0514622e+00, -1.7013016e+00, 0.0000000e+00</node>
         <node id="6">-1.0514622e+00, 1.7013016e+00, 0.0000000e+00</node>
         <node id="7">1.0514622e+00, 1.7013016e+00, 0.0000000e+00</node>
         <node id="8">1.0514622e+00, -1.7013016e+00, 0.0000000e+00</node>
         <node id="9">-1.7013016e+00, 2.0834936e-16, -1.0514622e+00</node>
         <node id="10">1.7013016e+00, 0.0000000e+00, -1.0514622e+00</node>
         <node id="11">1.7013016e+00, 0.0000000e+00, 1.0514622e+00</node>
         <node id="12">-1.7013016e+00, 2.0834936e-16, 1.0514622e+00</node>
         <node id="13">1.2246468e-16, 0.0000000e+00, -2.0000000e+00</node>
         <node id="14">-6.1803399e-01, -1.6180340e+00, -1.0000000e+00</node>
         <node id="15">6.1803399e-01, -1.6180340e+00, -1.0000000e+00</node>
         <node id="16">-1.0000000e+00, -6.1803399e-01, -1.6180340e+00</node>
         <node id="17">1.0000000e+00, -6.1803399e-01, -1.6180340e+00</node>
         <node id="18">1.2246468e-16, 0.0000000e+00, 2.0000000e+00</node>
         <node id="19">-6.1803399e-01, -1.6180340e+00, 1.0000000e+00</node>
         <node id="20">6.1803399e-01, -1.6180340e+00, 1.0000000e+00</node>
<!-- ... 2324 like lines cut -->
      </Nodes>
      <Elements mat="1" name="Sphere_1" type="tet4">
         <elem id="2">   1055,   651,   1179,   1319</elem>
         <elem id="3">   868,   906,   1039,   1162</elem>
         <elem id="4">   823,   1214,   1249,   1810</elem>
         <elem id="5">   505,   503,   1158,   1636</elem>
         <elem id="6">   108,   1443,   1512,   1959</elem>
         <elem id="8">   829,   359,   898,   1750</elem>
         <elem id="9">   191,   71,   483,   1209</elem>
         <elem id="10">   933,   870,   1091,   1171</elem>
         <elem id="11">   113,   860,   1056,   1858</elem>
         <elem id="12">   743,   678,   1029,   1136</elem>
         <elem id="13">   889,   1693,   1732,   2012</elem>
         <elem id="14">   47,   247,   416,   1082</elem>
         <elem id="15">   944,   846,   1174,   1941</elem>
         <elem id="16">   648,   878,   1717,   1995</elem>
         <elem id="19">   1415,   857,   1421,   1547</elem>
         <elem id="20">   914,   1076,   1152,   1342</elem>
         <elem id="21">   368,   546,   1331,   2078</elem>
         <elem id="22">   1408,   830,   1849,   1926</elem>
         <elem id="23">   798,   849,   1001,   1097</elem>
         <elem id="24">   57,   177,   434,   1357</elem>
<!-- ... 9420 like lines cut -->
      </Elements>
      <Elements mat="2" name="Sphere_2" type="tet4">
         <elem id="1">   1294,   1837,   1874,   1883</elem>
         <elem id="7">   1903,   1213,   2232,   2247</elem>
         <elem id="17">   961,   1865,   1987,   2139</elem>
         <elem id="18">   1325,   742,   1955,   2159</elem>
         <elem id="50">   1107,   2070,   2278,   2334</elem>
         <elem id="51">   1299,   1516,   1986,   2315</elem>
         <elem id="56">   1334,   663,   2039,   2074</elem>
         <elem id="74">   1436,   796,   1649,   1737</elem>
         <elem id="76">   1798,   1396,   1876,   1978</elem>
         <elem id="77">   784,   702,   670,   2259</elem>
         <elem id="80">   1618,   704,   1997,   2055</elem>
         <elem id="84">   782,   781,   1709,   2333</elem>
         <elem id="86">   655,   748,   2256,   2343</elem>
         <elem id="93">   755,   657,   720,   1862</elem>
         <elem id="112">   1500,   693,   2001,   2039</elem>
         <elem id="118">   1768,   1814,   1868,   2098</elem>
         <elem id="119">   677,   713,   796,   1931</elem>
         <elem id="125">   1347,   1244,   1677,   1938</elem>
         <elem id="128">   1390,   1137,   1586,   1873</elem>
         <elem id="136">   1669,   941,   1735,   2246</elem>
<!-- ... 3246 like lines cut -->
      </Elements>
      <NodeSet name="set_1">
         <node id="1"/>
         <node id="2"/>
         <node id="3"/>
         <node id="4"/>
         <node id="5"/>
         <node id="6"/>
         <node id="7"/>
         <node id="8"/>
         <node id="9"/>
         <node id="10"/>
         <node id="11"/>
         <node id="12"/>
         <node id="13"/>
         <node id="14"/>
         <node id="15"/>
         <node id="16"/>
         <node id="17"/>
         <node id="18"/>
         <node id="19"/>
         <node id="20"/>
<!-- ... 622 like lines cut -->
      </NodeSet>
   </Geometry>
   <Boundary>
      <prescribe bc="x" lc="1">
         <node id="1">2.4143810e-17</node>
         <node id="2">2.4143810e-17</node>
         <node id="3">-8.0479365e-18</node>
         <node id="4">-8.0479365e-18</node>
         <node id="5">-1.0782598e-01</node>
         <node id="6">-1.5503958e-01</node>
         <node id="7">1.5503958e-01</node>
         <node id="8">1.0782598e-01</node>
         <node id="9">-2.1266270e-01</node>
         <node id="10">2.1266270e-01</node>
         <node id="11">2.1266270e-01</node>
         <node id="12">-2.1266270e-01</node>
         <node id="13">1.5308085e-17</node>
         <node id="14">-1.4808242e-01</node>
         <node id="15">1.4808242e-01</node>
         <node id="16">1.2398983e-01</node>
         <node id="17">-1.2398983e-01</node>
         <node id="18">1.5308085e-17</node>
         <node id="19">-1.4808242e-01</node>
         <node id="20">1.4808242e-01</node>
<!-- ... 622 like lines cut -->
      </prescribe>
      <prescribe bc="y" lc="1">
         <node id="1">-3.9429833e-01</node>
         <node id="2">-3.9429833e-01</node>
         <node id="3">-1.3143278e-01</node>
         <node id="4">-1.3143278e-01</node>
         <node id="5">-1.7446610e-01</node>
         <node id="6">2.5085930e-01</node>
         <node id="7">2.5085930e-01</node>
         <node id="8">-1.7446610e-01</node>
         <node id="9">2.6043670e-17</node>
         <node id="10">0.0000000e+00</node>
         <node id="11">0.0000000e+00</node>
         <node id="12">2.6043670e-17</node>
         <node id="13">0.0000000e+00</node>
         <node id="14">-3.8768482e-01</node>
         <node id="15">-3.8768482e-01</node>
         <node id="16">7.6629928e-02</node>
         <node id="17">7.6629928e-02</node>
         <node id="18">0.0000000e+00</node>
         <node id="19">-3.8768482e-01</node>
         <node id="20">-3.8768482e-01</node>
<!-- ... 622 like lines cut -->
      </prescribe>
      <prescribe bc="z" lc="1">
         <node id="1">0.0000000e+00</node>
         <node id="2">0.0000000e+00</node>
         <node id="3">0.0000000e+00</node>
         <node id="4">0.0000000e+00</node>
         <node id="5">0.0000000e+00</node>
         <node id="6">0.0000000e+00</node>
         <node id="7">0.0000000e+00</node>
         <node id="8">0.0000000e+00</node>
         <node id="9">0.0000000e+00</node>
         <node id="10">0.0000000e+00</node>
         <node id="11">0.0000000e+00</node>
         <node id="12">0.0000000e+00</node>
         <node id="13">0.0000000e+00</node>
         <node id="14">0.0000000e+00</node>
         <node id="15">0.0000000e+00</node>
         <node id="16">0.0000000e+00</node>
         <node id="17">0.0000000e+00</node>
         <node id="18">0.0000000e+00</node>
         <node id="19">0.0000000e+00</node>
         <node id="20">0.0000000e+00</node>
<!-- ... 622 like lines cut -->
      </prescribe>
   </Boundary>
   <LoadData>
      <loadcurve id="1" type="linear">
         <loadpoint>0.000000, 0.000000</loadpoint>
         <loadpoint>1.000000, 1.000000</loadpoint>
      </loadcurve>
   </LoadData>
   <Output>
      <plotfile type="febio">
         <var type="displacement"/>
         <var type="stress"/>
         <var type="relative volume"/>
         <var type="shell thickness"/>
      </plotfile>
      <logfile>
         <node_data data="ux;uy;uz" delim=", " file="D:\MATLAB\GIBBON\trunk\data\temp\tempModel_node_out.txt"/>
      </logfile>
   </Output>
</febio_spec>
