<?xml version="1.0" encoding="UTF-8"?>
<febio_spec version="2.0">
    <!--Created using GIBBON, 20-Dec-2017 09:48:26-->
    <Module type="solid"/>
    <Control>
        <time_steps>20.000000</time_steps>
        <step_size>0.050000</step_size>
        <max_refs>25.000000</max_refs>
        <max_ups>0.000000</max_ups>
        <dtol>0.001000</dtol>
        <etol>0.010000</etol>
        <rtol>0.000000</rtol>
        <lstol>0.900000</lstol>
        <analysis type="static"/>
        <time_stepper>
            <dtmin>0.000500</dtmin>
            <dtmax>0.050000</dtmax>
            <max_retries>5.000000</max_retries>
            <opt_iter>10.000000</opt_iter>
        </time_stepper>
    </Control>
    <Globals>
        <Constants>
            <T>0.0000000e+00</T>
            <R>0.0000000e+00</R>
            <Fc>0.0000000e+00</Fc>
        </Constants>
    </Globals>
    <Material>
        <material id="1" name="mat_1" type="neo-Hookean">
            <E>6.5500000e+03</E>
            <v>3.0000000e-01</v>
        </material>
        <material id="2" name="mat_2" type="neo-Hookean">
            <E>7.2000000e+03</E>
            <v>3.0000000e-01</v>
        </material>
    </Material>
    <Geometry>
        <Nodes>
            <node id="1">-2.8000000e+00, -2.5000000e+01, -4.5500000e+01</node>
            <node id="2">-2.8000000e+00, -2.5000000e+01, -3.9812500e+01</node>
            <node id="3">-2.8000000e+00, -2.5000000e+01, -3.4125000e+01</node>
            <node id="4">-2.8000000e+00, -2.5000000e+01, -2.8437500e+01</node>
            <node id="5">-2.8000000e+00, -2.5000000e+01, -2.2750000e+01</node>
            <node id="6">-2.8000000e+00, -2.5000000e+01, -1.7062500e+01</node>
            <node id="7">-2.8000000e+00, -2.5000000e+01, -1.1375000e+01</node>
            <node id="8">-2.8000000e+00, -2.5000000e+01, -5.6875000e+00</node>
            <node id="9">-2.8000000e+00, -2.5000000e+01, 0.0000000e+00</node>
            <node id="10">-2.8000000e+00, -2.5000000e+01, 5.6875000e+00</node>
            <node id="11">-2.8000000e+00, -2.5000000e+01, 1.1375000e+01</node>
            <node id="12">-2.8000000e+00, -2.5000000e+01, 1.7062500e+01</node>
            <node id="13">-2.8000000e+00, -2.5000000e+01, 2.2750000e+01</node>
            <node id="14">-2.8000000e+00, -2.5000000e+01, 2.8437500e+01</node>
            <node id="15">-2.8000000e+00, -2.5000000e+01, 3.4125000e+01</node>
            <node id="16">-2.8000000e+00, -2.5000000e+01, 3.9812500e+01</node>
            <node id="17">-2.8000000e+00, -2.5000000e+01, 4.5500000e+01</node>
            <node id="18">-2.8000000e+00, -1.9444444e+01, -4.5500000e+01</node>
            <node id="19">-2.8000000e+00, -1.9444444e+01, -3.9812500e+01</node>
            <node id="20">-2.8000000e+00, -1.9444444e+01, -3.4125000e+01</node>
<!-- ... 500 like lines cut -->
            <node id="521">       NaN,        NaN,        NaN</node>
            <node id="522">       NaN,        NaN,        NaN</node>
            <node id="523">       NaN,        NaN,        NaN</node>
            <node id="524">       NaN,        NaN,        NaN</node>
            <node id="525">       NaN,        NaN,        NaN</node>
            <node id="526">       NaN,        NaN,        NaN</node>
            <node id="527">       NaN,        NaN,        NaN</node>
            <node id="528">       NaN,        NaN,        NaN</node>
            <node id="529">       NaN,        NaN,        NaN</node>
            <node id="530">       NaN,        NaN,        NaN</node>
            <node id="531">       NaN,        NaN,        NaN</node>
            <node id="532">       NaN,        NaN,        NaN</node>
            <node id="533">       NaN,        NaN,        NaN</node>
            <node id="534">       NaN,        NaN,        NaN</node>
            <node id="535">       NaN,        NaN,        NaN</node>
            <node id="536">       NaN,        NaN,        NaN</node>
            <node id="537">       NaN,        NaN,        NaN</node>
            <node id="538">       NaN,        NaN,        NaN</node>
            <node id="539">       NaN,        NaN,        NaN</node>
            <node id="540">       NaN,        NaN,        NaN</node>
<!-- ... 3180 like lines cut -->
        </Nodes>
        <Elements mat="1" name="Bar_1" type="hex8">
            <elem id="1">   1,   171,   188,   18,   2,   172,   189,   19</elem>
            <elem id="2">   18,   188,   205,   35,   19,   189,   206,   36</elem>
            <elem id="3">   35,   205,   222,   52,   36,   206,   223,   53</elem>
            <elem id="4">   52,   222,   239,   69,   53,   223,   240,   70</elem>
            <elem id="5">   69,   239,   256,   86,   70,   240,   257,   87</elem>
            <elem id="6">   86,   256,   273,   103,   87,   257,   274,   104</elem>
            <elem id="7">   103,   273,   290,   120,   104,   274,   291,   121</elem>
            <elem id="8">   120,   290,   307,   137,   121,   291,   308,   138</elem>
            <elem id="9">   137,   307,   324,   154,   138,   308,   325,   155</elem>
            <elem id="10">   2,   172,   189,   19,   3,   173,   190,   20</elem>
            <elem id="11">   19,   189,   206,   36,   20,   190,   207,   37</elem>
            <elem id="12">   36,   206,   223,   53,   37,   207,   224,   54</elem>
            <elem id="13">   53,   223,   240,   70,   54,   224,   241,   71</elem>
            <elem id="14">   70,   240,   257,   87,   71,   241,   258,   88</elem>
            <elem id="15">   87,   257,   274,   104,   88,   258,   275,   105</elem>
            <elem id="16">   104,   274,   291,   121,   105,   275,   292,   122</elem>
            <elem id="17">   121,   291,   308,   138,   122,   292,   309,   139</elem>
            <elem id="18">   138,   308,   325,   155,   139,   309,   326,   156</elem>
            <elem id="19">   3,   173,   190,   20,   4,   174,   191,   21</elem>
            <elem id="20">   20,   190,   207,   37,   21,   191,   208,   38</elem>
<!-- ... 124 like lines cut -->
        </Elements>
        <Elements mat="2" name="Bar_2" type="hex8">
            <elem id="145">   171,   188,   189,   172,   341,   343,   344,   342</elem>
            <elem id="146">   188,   205,   206,   189,   343,   345,   346,   344</elem>
            <elem id="147">   205,   222,   223,   206,   345,   347,   348,   346</elem>
            <elem id="148">   222,   239,   240,   223,   347,   349,   350,   348</elem>
            <elem id="149">   239,   256,   257,   240,   349,   351,   352,   350</elem>
            <elem id="150">   256,   273,   274,   257,   351,   353,   354,   352</elem>
            <elem id="151">   273,   290,   291,   274,   353,   355,   356,   354</elem>
            <elem id="152">   290,   307,   308,   291,   355,   357,   358,   356</elem>
            <elem id="153">   307,   324,   325,   308,   357,   359,   360,   358</elem>
            <elem id="154">   341,   343,   344,   342,   361,   363,   364,   362</elem>
            <elem id="155">   343,   345,   346,   344,   363,   365,   366,   364</elem>
            <elem id="156">   345,   347,   348,   346,   365,   367,   368,   366</elem>
            <elem id="157">   347,   349,   350,   348,   367,   369,   370,   368</elem>
            <elem id="158">   349,   351,   352,   350,   369,   371,   372,   370</elem>
            <elem id="159">   351,   353,   354,   352,   371,   373,   374,   372</elem>
            <elem id="160">   353,   355,   356,   354,   373,   375,   376,   374</elem>
            <elem id="161">   355,   357,   358,   356,   375,   377,   378,   376</elem>
            <elem id="162">   357,   359,   360,   358,   377,   379,   380,   378</elem>
            <elem id="163">   361,   363,   364,   362,   381,   383,   384,   382</elem>
            <elem id="164">   363,   365,   366,   364,   383,   385,   386,   384</elem>
<!-- ... 61 like lines cut -->
        </Elements>
        <NodeSet name="bcRigidList">
            <node id="17"/>
            <node id="34"/>
            <node id="51"/>
            <node id="68"/>
            <node id="85"/>
            <node id="102"/>
            <node id="119"/>
            <node id="136"/>
            <node id="153"/>
            <node id="170"/>
            <node id="187"/>
            <node id="204"/>
            <node id="221"/>
            <node id="238"/>
            <node id="255"/>
            <node id="272"/>
            <node id="289"/>
            <node id="306"/>
            <node id="323"/>
            <node id="340"/>
        </NodeSet>
        <NodeSet name="bcPrescribeList">
            <node id="501"/>
            <node id="502"/>
            <node id="503"/>
            <node id="504"/>
            <node id="505"/>
            <node id="506"/>
            <node id="507"/>
            <node id="508"/>
            <node id="509"/>
            <node id="510"/>
            <node id="511"/>
            <node id="512"/>
            <node id="513"/>
            <node id="514"/>
            <node id="515"/>
            <node id="516"/>
            <node id="517"/>
            <node id="518"/>
            <node id="519"/>
            <node id="520"/>
        </NodeSet>
    </Geometry>
    <Boundary>
        <fix bc="x" set="bcRigidList"/>
        <fix bc="y" set="bcRigidList"/>
        <fix bc="z" set="bcRigidList"/>
    </Boundary>
    <Loads>
        <nodal_load bc="x" lc="1">
            <node id="501">-2.4310745e+01</node>
            <node id="502">-2.4310745e+01</node>
            <node id="503">-2.4310745e+01</node>
            <node id="504">-2.4310745e+01</node>
            <node id="505">-2.4310745e+01</node>
            <node id="506">-2.4310745e+01</node>
            <node id="507">-2.4310745e+01</node>
            <node id="508">-2.4310745e+01</node>
            <node id="509">-2.4310745e+01</node>
            <node id="510">-2.4310745e+01</node>
            <node id="511">-2.4310745e+01</node>
            <node id="512">-2.4310745e+01</node>
            <node id="513">-2.4310745e+01</node>
            <node id="514">-2.4310745e+01</node>
            <node id="515">-2.4310745e+01</node>
            <node id="516">-2.4310745e+01</node>
            <node id="517">-2.4310745e+01</node>
            <node id="518">-2.4310745e+01</node>
            <node id="519">-2.4310745e+01</node>
            <node id="520">-2.4310745e+01</node>
        </nodal_load>
        <nodal_load bc="y" lc="1">
            <node id="501">0.0000000e+00</node>
            <node id="502">0.0000000e+00</node>
            <node id="503">0.0000000e+00</node>
            <node id="504">0.0000000e+00</node>
            <node id="505">0.0000000e+00</node>
            <node id="506">0.0000000e+00</node>
            <node id="507">0.0000000e+00</node>
            <node id="508">0.0000000e+00</node>
            <node id="509">0.0000000e+00</node>
            <node id="510">0.0000000e+00</node>
            <node id="511">0.0000000e+00</node>
            <node id="512">0.0000000e+00</node>
            <node id="513">0.0000000e+00</node>
            <node id="514">0.0000000e+00</node>
            <node id="515">0.0000000e+00</node>
            <node id="516">0.0000000e+00</node>
            <node id="517">0.0000000e+00</node>
            <node id="518">0.0000000e+00</node>
            <node id="519">0.0000000e+00</node>
            <node id="520">0.0000000e+00</node>
        </nodal_load>
        <nodal_load bc="z" lc="1">
            <node id="501">-1.3787309e+02</node>
            <node id="502">-1.3787309e+02</node>
            <node id="503">-1.3787309e+02</node>
            <node id="504">-1.3787309e+02</node>
            <node id="505">-1.3787309e+02</node>
            <node id="506">-1.3787309e+02</node>
            <node id="507">-1.3787309e+02</node>
            <node id="508">-1.3787309e+02</node>
            <node id="509">-1.3787309e+02</node>
            <node id="510">-1.3787309e+02</node>
            <node id="511">-1.3787309e+02</node>
            <node id="512">-1.3787309e+02</node>
            <node id="513">-1.3787309e+02</node>
            <node id="514">-1.3787309e+02</node>
            <node id="515">-1.3787309e+02</node>
            <node id="516">-1.3787309e+02</node>
            <node id="517">-1.3787309e+02</node>
            <node id="518">-1.3787309e+02</node>
            <node id="519">-1.3787309e+02</node>
            <node id="520">-1.3787309e+02</node>
        </nodal_load>
    </Loads>
    <LoadData>
        <loadcurve id="1" type="linear">
            <loadpoint>0.000000, 0.000000</loadpoint>
            <loadpoint>1.000000, 1.000000</loadpoint>
        </loadcurve>
    </LoadData>
    <Output>
        <plotfile type="febio">
            <var type="displacement"/>
            <var type="stress"/>
            <var type="relative volume"/>
        </plotfile>
        <logfile>
            <node_data data="ux;uy;uz" delim=", " file="tempModel_node_out.txt"/>
            <node_data data="Rx;Ry;Rz" delim=", " file="tempModel_force_out.txt"/>
        </logfile>
    </Output>
</febio_spec>
