<?xml version="1.0" encoding="utf-8"?>
<febio_spec version="2.0"><!--Created using GIBBON, 29-Sep-2015 09:30:36-->
   <Module type="solid"/>
   <Control>
      <time_steps>10.000000</time_steps>
      <step_size>0.100000</step_size>
      <max_refs>25.000000</max_refs>
      <max_ups>10.000000</max_ups>
      <dtol>0.001000</dtol>
      <etol>0.010000</etol>
      <rtol>0.000000</rtol>
      <lstol>0.900000</lstol>
      <analysis type="static"/>
      <time_stepper>
         <dtmin>0.001000</dtmin>
         <dtmax>0.100000</dtmax>
         <max_retries>5.000000</max_retries>
         <opt_iter>5.000000</opt_iter>
      </time_stepper>
   </Control>
   <Globals>
      <Constants>
         <T>0.0000000e+00</T>
         <R>0.0000000e+00</R>
         <Fc>0.0000000e+00</Fc>
      </Constants>
   </Globals>
   <Material>
      <material id="1" name="gel_mat" type="Ogden">
         <c1>1.0000000e-03</c1>
         <m1>2.0000000e+00</m1>
         <k>5.0000000e-02</k>
      </material>
      <material id="2" name="mat_2" type="rigid body">
         <density>1.0000000e+00</density>
         <center_of_mass>0.0000000e+00, 0.0000000e+00, 0.0000000e+00</center_of_mass>
      </material>
   </Material>
   <Geometry>
      <Nodes>
         <node id="1">-5.9031293e+01, -7.4573208e+00, -1.0000000e+02</node>
         <node id="2">-5.9031293e+01, -7.4573208e+00, -6.6666667e+01</node>
         <node id="3">-5.9031293e+01, -7.4573208e+00, -3.3333333e+01</node>
         <node id="4">-5.9031293e+01, -7.4573208e+00, 0.0000000e+00</node>
         <node id="5">-5.9031293e+01, 4.9737992e-14, -8.3333333e+01</node>
         <node id="6">-5.9031293e+01, 4.9737992e-14, -5.0000000e+01</node>
         <node id="7">-5.9031293e+01, 4.9737992e-14, -1.6666667e+01</node>
         <node id="8">-5.9031293e+01, 7.4573208e+00, -1.0000000e+02</node>
         <node id="9">-5.9031293e+01, 7.4573208e+00, -6.6666667e+01</node>
         <node id="10">-5.9031293e+01, 7.4573208e+00, -3.3333333e+01</node>
         <node id="11">-5.9031293e+01, 7.4573208e+00, 0.0000000e+00</node>
         <node id="12">-5.7176560e+01, -1.4680355e+01, -8.3333333e+01</node>
         <node id="13">-5.7176560e+01, -1.4680355e+01, -5.0000000e+01</node>
         <node id="14">-5.7176560e+01, -1.4680355e+01, -1.6666667e+01</node>
         <node id="15">-5.7176560e+01, 1.4680355e+01, -8.3333333e+01</node>
         <node id="16">-5.7176560e+01, 1.4680355e+01, -5.0000000e+01</node>
         <node id="17">-5.7176560e+01, 1.4680355e+01, -1.6666667e+01</node>
         <node id="18">-5.5321827e+01, -2.1903389e+01, -1.0000000e+02</node>
         <node id="19">-5.5321827e+01, -2.1903389e+01, -6.6666667e+01</node>
         <node id="20">-5.5321827e+01, -2.1903389e+01, -3.3333333e+01</node>
<!-- ... 1691 like lines cut -->
      </Nodes>
      <Elements mat="1" name="Gel" type="tet4">
         <elem id="1">   765,   464,   873,   1113</elem>
         <elem id="2">   78,   72,   56,   108</elem>
         <elem id="3">   82,   668,   999,   1451</elem>
         <elem id="4">   814,   722,   862,   1272</elem>
         <elem id="5">   535,   460,   782,   1382</elem>
         <elem id="6">   663,   848,   890,   932</elem>
         <elem id="7">   326,   363,   343,   354</elem>
         <elem id="8">   78,   44,   34,   56</elem>
         <elem id="9">   627,   420,   1067,   1363</elem>
         <elem id="10">   193,   169,   183,   879</elem>
         <elem id="11">   664,   418,   769,   968</elem>
         <elem id="12">   301,   247,   277,   840</elem>
         <elem id="13">   424,   425,   625,   822</elem>
         <elem id="14">   499,   603,   724,   788</elem>
         <elem id="15">   171,   200,   413,   611</elem>
         <elem id="16">   523,   550,   1200,   1308</elem>
         <elem id="17">   75,   65,   47,   60</elem>
         <elem id="18">   816,   684,   1054,   1132</elem>
         <elem id="19">   661,   232,   705,   774</elem>
         <elem id="20">   515,   463,   520,   870</elem>
<!-- ... 8062 like lines cut -->
      </Elements>
      <Elements mat="2" name="Indentor" type="tri3">
         <elem id="8083">   1542,   1563,   1554</elem>
         <elem id="8084">   1535,   1534,   1525</elem>
         <elem id="8085">   1516,   1535,   1525</elem>
         <elem id="8086">   1506,   1516,   1525</elem>
         <elem id="8087">   1515,   1506,   1525</elem>
         <elem id="8088">   1659,   1661,   1643</elem>
         <elem id="8089">   1618,   1614,   1599</elem>
         <elem id="8090">   1619,   1602,   1603</elem>
         <elem id="8091">   1660,   1639,   1646</elem>
         <elem id="8092">   1614,   1587,   1599</elem>
         <elem id="8093">   1639,   1625,   1646</elem>
         <elem id="8094">   1587,   1583,   1599</elem>
         <elem id="8095">   1583,   1600,   1599</elem>
         <elem id="8096">   1584,   1588,   1603</elem>
         <elem id="8097">   1543,   1539,   1557</elem>
         <elem id="8098">   1664,   1660,   1646</elem>
         <elem id="8099">   1638,   1659,   1643</elem>
         <elem id="8100">   1600,   1618,   1599</elem>
         <elem id="8101">   1615,   1619,   1603</elem>
         <elem id="8102">   1563,   1575,   1554</elem>
<!-- ... 396 like lines cut -->
      </Elements>
      <ElementData>
         <element id="8083">
            <thickness> 1.0000000e-02, 1.0000000e-02, 1.0000000e-02</thickness>
         </element>
         <element id="8084">
            <thickness> 1.0000000e-02, 1.0000000e-02, 1.0000000e-02</thickness>
         </element>
         <element id="8085">
            <thickness> 1.0000000e-02, 1.0000000e-02, 1.0000000e-02</thickness>
         </element>
         <element id="8086">
            <thickness> 1.0000000e-02, 1.0000000e-02, 1.0000000e-02</thickness>
         </element>
         <element id="8087">
            <thickness> 1.0000000e-02, 1.0000000e-02, 1.0000000e-02</thickness>
         </element>
         <element id="8088">
            <thickness> 1.0000000e-02, 1.0000000e-02, 1.0000000e-02</thickness>
         </element>
         <element id="8089">
            <thickness> 1.0000000e-02, 1.0000000e-02, 1.0000000e-02</thickness>
         </element>
         <element id="8090">
            <thickness> 1.0000000e-02, 1.0000000e-02, 1.0000000e-02</thickness>
         </element>
         <element id="8091">
            <thickness> 1.0000000e-02, 1.0000000e-02, 1.0000000e-02</thickness>
         </element>
         <element id="8092">
            <thickness> 1.0000000e-02, 1.0000000e-02, 1.0000000e-02</thickness>
         </element>
         <element id="8093">
            <thickness> 1.0000000e-02, 1.0000000e-02, 1.0000000e-02</thickness>
         </element>
         <element id="8094">
            <thickness> 1.0000000e-02, 1.0000000e-02, 1.0000000e-02</thickness>
         </element>
         <element id="8095">
            <thickness> 1.0000000e-02, 1.0000000e-02, 1.0000000e-02</thickness>
         </element>
         <element id="8096">
            <thickness> 1.0000000e-02, 1.0000000e-02, 1.0000000e-02</thickness>
         </element>
         <element id="8097">
            <thickness> 1.0000000e-02, 1.0000000e-02, 1.0000000e-02</thickness>
         </element>
         <element id="8098">
            <thickness> 1.0000000e-02, 1.0000000e-02, 1.0000000e-02</thickness>
         </element>
         <element id="8099">
            <thickness> 1.0000000e-02, 1.0000000e-02, 1.0000000e-02</thickness>
         </element>
         <element id="8100">
            <thickness> 1.0000000e-02, 1.0000000e-02, 1.0000000e-02</thickness>
         </element>
         <element id="8101">
            <thickness> 1.0000000e-02, 1.0000000e-02, 1.0000000e-02</thickness>
         </element>
         <element id="8102">
            <thickness> 1.0000000e-02, 1.0000000e-02, 1.0000000e-02</thickness>
         </element>
         <element id="8103">
            <thickness> 1.0000000e-02, 1.0000000e-02, 1.0000000e-02</thickness>
         </element>
         <element id="8104">
            <thickness> 1.0000000e-02, 1.0000000e-02, 1.0000000e-02</thickness>
         </element>
         <element id="8105">
            <thickness> 1.0000000e-02, 1.0000000e-02, 1.0000000e-02</thickness>
         </element>
         <element id="8106">
            <thickness> 1.0000000e-02, 1.0000000e-02, 1.0000000e-02</thickness>
         </element>
         <element id="8107">
            <thickness> 1.0000000e-02, 1.0000000e-02, 1.0000000e-02</thickness>
         </element>
         <element id="8108">
            <thickness> 1.0000000e-02, 1.0000000e-02, 1.0000000e-02</thickness>
         </element>
         <element id="8109">
            <thickness> 1.0000000e-02, 1.0000000e-02, 1.0000000e-02</thickness>
         </element>
         <element id="8110">
            <thickness> 1.0000000e-02, 1.0000000e-02, 1.0000000e-02</thickness>
         </element>
         <element id="8111">
            <thickness> 1.0000000e-02, 1.0000000e-02, 1.0000000e-02</thickness>
         </element>
         <element id="8112">
            <thickness> 1.0000000e-02, 1.0000000e-02, 1.0000000e-02</thickness>
         </element>
         <element id="8113">
            <thickness> 1.0000000e-02, 1.0000000e-02, 1.0000000e-02</thickness>
         </element>
         <element id="8114">
            <thickness> 1.0000000e-02, 1.0000000e-02, 1.0000000e-02</thickness>
         </element>
         <element id="8115">
            <thickness> 1.0000000e-02, 1.0000000e-02, 1.0000000e-02</thickness>
         </element>
         <element id="8116">
            <thickness> 1.0000000e-02, 1.0000000e-02, 1.0000000e-02</thickness>
         </element>
         <element id="8117">
            <thickness> 1.0000000e-02, 1.0000000e-02, 1.0000000e-02</thickness>
         </element>
         <element id="8118">
            <thickness> 1.0000000e-02, 1.0000000e-02, 1.0000000e-02</thickness>
         </element>
         <element id="8119">
            <thickness> 1.0000000e-02, 1.0000000e-02, 1.0000000e-02</thickness>
         </element>
         <element id="8120">
            <thickness> 1.0000000e-02, 1.0000000e-02, 1.0000000e-02</thickness>
         </element>
         <element id="8121">
            <thickness> 1.0000000e-02, 1.0000000e-02, 1.0000000e-02</thickness>
         </element>
         <element id="8122">
            <thickness> 1.0000000e-02, 1.0000000e-02, 1.0000000e-02</thickness>
         </element>
         <element id="8123">
            <thickness> 1.0000000e-02, 1.0000000e-02, 1.0000000e-02</thickness>
         </element>
         <element id="8124">
            <thickness> 1.0000000e-02, 1.0000000e-02, 1.0000000e-02</thickness>
         </element>
         <element id="8125">
            <thickness> 1.0000000e-02, 1.0000000e-02, 1.0000000e-02</thickness>
         </element>
         <element id="8126">
            <thickness> 1.0000000e-02, 1.0000000e-02, 1.0000000e-02</thickness>
         </element>
         <element id="8127">
            <thickness> 1.0000000e-02, 1.0000000e-02, 1.0000000e-02</thickness>
         </element>
         <element id="8128">
            <thickness> 1.0000000e-02, 1.0000000e-02, 1.0000000e-02</thickness>
         </element>
         <element id="8129">
            <thickness> 1.0000000e-02, 1.0000000e-02, 1.0000000e-02</thickness>
         </element>
         <element id="8130">
            <thickness> 1.0000000e-02, 1.0000000e-02, 1.0000000e-02</thickness>
         </element>
         <element id="8131">
            <thickness> 1.0000000e-02, 1.0000000e-02, 1.0000000e-02</thickness>
         </element>
         <element id="8132">
            <thickness> 1.0000000e-02, 1.0000000e-02, 1.0000000e-02</thickness>
         </element>
         <element id="8133">
            <thickness> 1.0000000e-02, 1.0000000e-02, 1.0000000e-02</thickness>
         </element>
         <element id="8134">
            <thickness> 1.0000000e-02, 1.0000000e-02, 1.0000000e-02</thickness>
         </element>
         <element id="8135">
            <thickness> 1.0000000e-02, 1.0000000e-02, 1.0000000e-02</thickness>
         </element>
         <element id="8136">
            <thickness> 1.0000000e-02, 1.0000000e-02, 1.0000000e-02</thickness>
         </element>
         <element id="8137">
            <thickness> 1.0000000e-02, 1.0000000e-02, 1.0000000e-02</thickness>
         </element>
         <element id="8138">
            <thickness> 1.0000000e-02, 1.0000000e-02, 1.0000000e-02</thickness>
         </element>
         <element id="8139">
            <thickness> 1.0000000e-02, 1.0000000e-02, 1.0000000e-02</thickness>
         </element>
         <element id="8140">
            <thickness> 1.0000000e-02, 1.0000000e-02, 1.0000000e-02</thickness>
         </element>
         <element id="8141">
            <thickness> 1.0000000e-02, 1.0000000e-02, 1.0000000e-02</thickness>
         </element>
         <element id="8142">
            <thickness> 1.0000000e-02, 1.0000000e-02, 1.0000000e-02</thickness>
         </element>
         <element id="8143">
            <thickness> 1.0000000e-02, 1.0000000e-02, 1.0000000e-02</thickness>
         </element>
         <element id="8144">
            <thickness> 1.0000000e-02, 1.0000000e-02, 1.0000000e-02</thickness>
         </element>
         <element id="8145">
            <thickness> 1.0000000e-02, 1.0000000e-02, 1.0000000e-02</thickness>
         </element>
         <element id="8146">
            <thickness> 1.0000000e-02, 1.0000000e-02, 1.0000000e-02</thickness>
         </element>
         <element id="8147">
            <thickness> 1.0000000e-02, 1.0000000e-02, 1.0000000e-02</thickness>
         </element>
         <element id="8148">
            <thickness> 1.0000000e-02, 1.0000000e-02, 1.0000000e-02</thickness>
         </element>
         <element id="8149">
            <thickness> 1.0000000e-02, 1.0000000e-02, 1.0000000e-02</thickness>
         </element>
         <element id="8150">
            <thickness> 1.0000000e-02, 1.0000000e-02, 1.0000000e-02</thickness>
         </element>
         <element id="8151">
            <thickness> 1.0000000e-02, 1.0000000e-02, 1.0000000e-02</thickness>
         </element>
         <element id="8152">
            <thickness> 1.0000000e-02, 1.0000000e-02, 1.0000000e-02</thickness>
         </element>
         <element id="8153">
            <thickness> 1.0000000e-02, 1.0000000e-02, 1.0000000e-02</thickness>
         </element>
         <element id="8154">
            <thickness> 1.0000000e-02, 1.0000000e-02, 1.0000000e-02</thickness>
         </element>
         <element id="8155">
            <thickness> 1.0000000e-02, 1.0000000e-02, 1.0000000e-02</thickness>
         </element>
         <element id="8156">
            <thickness> 1.0000000e-02, 1.0000000e-02, 1.0000000e-02</thickness>
         </element>
         <element id="8157">
            <thickness> 1.0000000e-02, 1.0000000e-02, 1.0000000e-02</thickness>
         </element>
         <element id="8158">
            <thickness> 1.0000000e-02, 1.0000000e-02, 1.0000000e-02</thickness>
         </element>
         <element id="8159">
            <thickness> 1.0000000e-02, 1.0000000e-02, 1.0000000e-02</thickness>
         </element>
         <element id="8160">
            <thickness> 1.0000000e-02, 1.0000000e-02, 1.0000000e-02</thickness>
         </element>
         <element id="8161">
            <thickness> 1.0000000e-02, 1.0000000e-02, 1.0000000e-02</thickness>
         </element>
         <element id="8162">
            <thickness> 1.0000000e-02, 1.0000000e-02, 1.0000000e-02</thickness>
         </element>
         <element id="8163">
            <thickness> 1.0000000e-02, 1.0000000e-02, 1.0000000e-02</thickness>
         </element>
         <element id="8164">
            <thickness> 1.0000000e-02, 1.0000000e-02, 1.0000000e-02</thickness>
         </element>
         <element id="8165">
            <thickness> 1.0000000e-02, 1.0000000e-02, 1.0000000e-02</thickness>
         </element>
         <element id="8166">
            <thickness> 1.0000000e-02, 1.0000000e-02, 1.0000000e-02</thickness>
         </element>
         <element id="8167">
            <thickness> 1.0000000e-02, 1.0000000e-02, 1.0000000e-02</thickness>
         </element>
         <element id="8168">
            <thickness> 1.0000000e-02, 1.0000000e-02, 1.0000000e-02</thickness>
         </element>
         <element id="8169">
            <thickness> 1.0000000e-02, 1.0000000e-02, 1.0000000e-02</thickness>
         </element>
         <element id="8170">
            <thickness> 1.0000000e-02, 1.0000000e-02, 1.0000000e-02</thickness>
         </element>
         <element id="8171">
            <thickness> 1.0000000e-02, 1.0000000e-02, 1.0000000e-02</thickness>
         </element>
         <element id="8172">
            <thickness> 1.0000000e-02, 1.0000000e-02, 1.0000000e-02</thickness>
         </element>
         <element id="8173">
            <thickness> 1.0000000e-02, 1.0000000e-02, 1.0000000e-02</thickness>
         </element>
         <element id="8174">
            <thickness> 1.0000000e-02, 1.0000000e-02, 1.0000000e-02</thickness>
         </element>
         <element id="8175">
            <thickness> 1.0000000e-02, 1.0000000e-02, 1.0000000e-02</thickness>
         </element>
         <element id="8176">
            <thickness> 1.0000000e-02, 1.0000000e-02, 1.0000000e-02</thickness>
         </element>
         <element id="8177">
            <thickness> 1.0000000e-02, 1.0000000e-02, 1.0000000e-02</thickness>
         </element>
         <element id="8178">
            <thickness> 1.0000000e-02, 1.0000000e-02, 1.0000000e-02</thickness>
         </element>
         <element id="8179">
            <thickness> 1.0000000e-02, 1.0000000e-02, 1.0000000e-02</thickness>
         </element>
         <element id="8180">
            <thickness> 1.0000000e-02, 1.0000000e-02, 1.0000000e-02</thickness>
         </element>
         <element id="8181">
            <thickness> 1.0000000e-02, 1.0000000e-02, 1.0000000e-02</thickness>
         </element>
         <element id="8182">
            <thickness> 1.0000000e-02, 1.0000000e-02, 1.0000000e-02</thickness>
         </element>
         <element id="8183">
            <thickness> 1.0000000e-02, 1.0000000e-02, 1.0000000e-02</thickness>
         </element>
         <element id="8184">
            <thickness> 1.0000000e-02, 1.0000000e-02, 1.0000000e-02</thickness>
         </element>
         <element id="8185">
            <thickness> 1.0000000e-02, 1.0000000e-02, 1.0000000e-02</thickness>
         </element>
         <element id="8186">
            <thickness> 1.0000000e-02, 1.0000000e-02, 1.0000000e-02</thickness>
         </element>
         <element id="8187">
            <thickness> 1.0000000e-02, 1.0000000e-02, 1.0000000e-02</thickness>
         </element>
         <element id="8188">
            <thickness> 1.0000000e-02, 1.0000000e-02, 1.0000000e-02</thickness>
         </element>
         <element id="8189">
            <thickness> 1.0000000e-02, 1.0000000e-02, 1.0000000e-02</thickness>
         </element>
         <element id="8190">
            <thickness> 1.0000000e-02, 1.0000000e-02, 1.0000000e-02</thickness>
         </element>
         <element id="8191">
            <thickness> 1.0000000e-02, 1.0000000e-02, 1.0000000e-02</thickness>
         </element>
         <element id="8192">
            <thickness> 1.0000000e-02, 1.0000000e-02, 1.0000000e-02</thickness>
         </element>
         <element id="8193">
            <thickness> 1.0000000e-02, 1.0000000e-02, 1.0000000e-02</thickness>
         </element>
         <element id="8194">
            <thickness> 1.0000000e-02, 1.0000000e-02, 1.0000000e-02</thickness>
         </element>
         <element id="8195">
            <thickness> 1.0000000e-02, 1.0000000e-02, 1.0000000e-02</thickness>
         </element>
         <element id="8196">
            <thickness> 1.0000000e-02, 1.0000000e-02, 1.0000000e-02</thickness>
         </element>
         <element id="8197">
            <thickness> 1.0000000e-02, 1.0000000e-02, 1.0000000e-02</thickness>
         </element>
         <element id="8198">
            <thickness> 1.0000000e-02, 1.0000000e-02, 1.0000000e-02</thickness>
         </element>
         <element id="8199">
            <thickness> 1.0000000e-02, 1.0000000e-02, 1.0000000e-02</thickness>
         </element>
         <element id="8200">
            <thickness> 1.0000000e-02, 1.0000000e-02, 1.0000000e-02</thickness>
         </element>
         <element id="8201">
            <thickness> 1.0000000e-02, 1.0000000e-02, 1.0000000e-02</thickness>
         </element>
         <element id="8202">
            <thickness> 1.0000000e-02, 1.0000000e-02, 1.0000000e-02</thickness>
         </element>
         <element id="8203">
            <thickness> 1.0000000e-02, 1.0000000e-02, 1.0000000e-02</thickness>
         </element>
         <element id="8204">
            <thickness> 1.0000000e-02, 1.0000000e-02, 1.0000000e-02</thickness>
         </element>
         <element id="8205">
            <thickness> 1.0000000e-02, 1.0000000e-02, 1.0000000e-02</thickness>
         </element>
         <element id="8206">
            <thickness> 1.0000000e-02, 1.0000000e-02, 1.0000000e-02</thickness>
         </element>
         <element id="8207">
            <thickness> 1.0000000e-02, 1.0000000e-02, 1.0000000e-02</thickness>
         </element>
         <element id="8208">
            <thickness> 1.0000000e-02, 1.0000000e-02, 1.0000000e-02</thickness>
         </element>
         <element id="8209">
            <thickness> 1.0000000e-02, 1.0000000e-02, 1.0000000e-02</thickness>
         </element>
         <element id="8210">
            <thickness> 1.0000000e-02, 1.0000000e-02, 1.0000000e-02</thickness>
         </element>
         <element id="8211">
            <thickness> 1.0000000e-02, 1.0000000e-02, 1.0000000e-02</thickness>
         </element>
         <element id="8212">
            <thickness> 1.0000000e-02, 1.0000000e-02, 1.0000000e-02</thickness>
         </element>
         <element id="8213">
            <thickness> 1.0000000e-02, 1.0000000e-02, 1.0000000e-02</thickness>
         </element>
         <element id="8214">
            <thickness> 1.0000000e-02, 1.0000000e-02, 1.0000000e-02</thickness>
         </element>
         <element id="8215">
            <thickness> 1.0000000e-02, 1.0000000e-02, 1.0000000e-02</thickness>
         </element>
         <element id="8216">
            <thickness> 1.0000000e-02, 1.0000000e-02, 1.0000000e-02</thickness>
         </element>
         <element id="8217">
            <thickness> 1.0000000e-02, 1.0000000e-02, 1.0000000e-02</thickness>
         </element>
         <element id="8218">
            <thickness> 1.0000000e-02, 1.0000000e-02, 1.0000000e-02</thickness>
         </element>
         <element id="8219">
            <thickness> 1.0000000e-02, 1.0000000e-02, 1.0000000e-02</thickness>
         </element>
         <element id="8220">
            <thickness> 1.0000000e-02, 1.0000000e-02, 1.0000000e-02</thickness>
         </element>
         <element id="8221">
            <thickness> 1.0000000e-02, 1.0000000e-02, 1.0000000e-02</thickness>
         </element>
         <element id="8222">
            <thickness> 1.0000000e-02, 1.0000000e-02, 1.0000000e-02</thickness>
         </element>
         <element id="8223">
            <thickness> 1.0000000e-02, 1.0000000e-02, 1.0000000e-02</thickness>
         </element>
         <element id="8224">
            <thickness> 1.0000000e-02, 1.0000000e-02, 1.0000000e-02</thickness>
         </element>
         <element id="8225">
            <thickness> 1.0000000e-02, 1.0000000e-02, 1.0000000e-02</thickness>
         </element>
         <element id="8226">
            <thickness> 1.0000000e-02, 1.0000000e-02, 1.0000000e-02</thickness>
         </element>
         <element id="8227">
            <thickness> 1.0000000e-02, 1.0000000e-02, 1.0000000e-02</thickness>
         </element>
         <element id="8228">
            <thickness> 1.0000000e-02, 1.0000000e-02, 1.0000000e-02</thickness>
         </element>
         <element id="8229">
            <thickness> 1.0000000e-02, 1.0000000e-02, 1.0000000e-02</thickness>
         </element>
         <element id="8230">
            <thickness> 1.0000000e-02, 1.0000000e-02, 1.0000000e-02</thickness>
         </element>
         <element id="8231">
            <thickness> 1.0000000e-02, 1.0000000e-02, 1.0000000e-02</thickness>
         </element>
         <element id="8232">
            <thickness> 1.0000000e-02, 1.0000000e-02, 1.0000000e-02</thickness>
         </element>
         <element id="8233">
            <thickness> 1.0000000e-02, 1.0000000e-02, 1.0000000e-02</thickness>
         </element>
         <element id="8234">
            <thickness> 1.0000000e-02, 1.0000000e-02, 1.0000000e-02</thickness>
         </element>
         <element id="8235">
            <thickness> 1.0000000e-02, 1.0000000e-02, 1.0000000e-02</thickness>
         </element>
         <element id="8236">
            <thickness> 1.0000000e-02, 1.0000000e-02, 1.0000000e-02</thickness>
         </element>
         <element id="8237">
            <thickness> 1.0000000e-02, 1.0000000e-02, 1.0000000e-02</thickness>
         </element>
         <element id="8238">
            <thickness> 1.0000000e-02, 1.0000000e-02, 1.0000000e-02</thickness>
         </element>
         <element id="8239">
            <thickness> 1.0000000e-02, 1.0000000e-02, 1.0000000e-02</thickness>
         </element>
         <element id="8240">
            <thickness> 1.0000000e-02, 1.0000000e-02, 1.0000000e-02</thickness>
         </element>
         <element id="8241">
            <thickness> 1.0000000e-02, 1.0000000e-02, 1.0000000e-02</thickness>
         </element>
         <element id="8242">
            <thickness> 1.0000000e-02, 1.0000000e-02, 1.0000000e-02</thickness>
         </element>
         <element id="8243">
            <thickness> 1.0000000e-02, 1.0000000e-02, 1.0000000e-02</thickness>
         </element>
         <element id="8244">
            <thickness> 1.0000000e-02, 1.0000000e-02, 1.0000000e-02</thickness>
         </element>
         <element id="8245">
            <thickness> 1.0000000e-02, 1.0000000e-02, 1.0000000e-02</thickness>
         </element>
         <element id="8246">
            <thickness> 1.0000000e-02, 1.0000000e-02, 1.0000000e-02</thickness>
         </element>
         <element id="8247">
            <thickness> 1.0000000e-02, 1.0000000e-02, 1.0000000e-02</thickness>
         </element>
         <element id="8248">
            <thickness> 1.0000000e-02, 1.0000000e-02, 1.0000000e-02</thickness>
         </element>
         <element id="8249">
            <thickness> 1.0000000e-02, 1.0000000e-02, 1.0000000e-02</thickness>
         </element>
         <element id="8250">
            <thickness> 1.0000000e-02, 1.0000000e-02, 1.0000000e-02</thickness>
         </element>
         <element id="8251">
            <thickness> 1.0000000e-02, 1.0000000e-02, 1.0000000e-02</thickness>
         </element>
         <element id="8252">
            <thickness> 1.0000000e-02, 1.0000000e-02, 1.0000000e-02</thickness>
         </element>
         <element id="8253">
            <thickness> 1.0000000e-02, 1.0000000e-02, 1.0000000e-02</thickness>
         </element>
         <element id="8254">
            <thickness> 1.0000000e-02, 1.0000000e-02, 1.0000000e-02</thickness>
         </element>
         <element id="8255">
            <thickness> 1.0000000e-02, 1.0000000e-02, 1.0000000e-02</thickness>
         </element>
         <element id="8256">
            <thickness> 1.0000000e-02, 1.0000000e-02, 1.0000000e-02</thickness>
         </element>
         <element id="8257">
            <thickness> 1.0000000e-02, 1.0000000e-02, 1.0000000e-02</thickness>
         </element>
         <element id="8258">
            <thickness> 1.0000000e-02, 1.0000000e-02, 1.0000000e-02</thickness>
         </element>
         <element id="8259">
            <thickness> 1.0000000e-02, 1.0000000e-02, 1.0000000e-02</thickness>
         </element>
         <element id="8260">
            <thickness> 1.0000000e-02, 1.0000000e-02, 1.0000000e-02</thickness>
         </element>
         <element id="8261">
            <thickness> 1.0000000e-02, 1.0000000e-02, 1.0000000e-02</thickness>
         </element>
         <element id="8262">
            <thickness> 1.0000000e-02, 1.0000000e-02, 1.0000000e-02</thickness>
         </element>
         <element id="8263">
            <thickness> 1.0000000e-02, 1.0000000e-02, 1.0000000e-02</thickness>
         </element>
         <element id="8264">
            <thickness> 1.0000000e-02, 1.0000000e-02, 1.0000000e-02</thickness>
         </element>
         <element id="8265">
            <thickness> 1.0000000e-02, 1.0000000e-02, 1.0000000e-02</thickness>
         </element>
         <element id="8266">
            <thickness> 1.0000000e-02, 1.0000000e-02, 1.0000000e-02</thickness>
         </element>
         <element id="8267">
            <thickness> 1.0000000e-02, 1.0000000e-02, 1.0000000e-02</thickness>
         </element>
         <element id="8268">
            <thickness> 1.0000000e-02, 1.0000000e-02, 1.0000000e-02</thickness>
         </element>
         <element id="8269">
            <thickness> 1.0000000e-02, 1.0000000e-02, 1.0000000e-02</thickness>
         </element>
         <element id="8270">
            <thickness> 1.0000000e-02, 1.0000000e-02, 1.0000000e-02</thickness>
         </element>
         <element id="8271">
            <thickness> 1.0000000e-02, 1.0000000e-02, 1.0000000e-02</thickness>
         </element>
         <element id="8272">
            <thickness> 1.0000000e-02, 1.0000000e-02, 1.0000000e-02</thickness>
         </element>
         <element id="8273">
            <thickness> 1.0000000e-02, 1.0000000e-02, 1.0000000e-02</thickness>
         </element>
         <element id="8274">
            <thickness> 1.0000000e-02, 1.0000000e-02, 1.0000000e-02</thickness>
         </element>
         <element id="8275">
            <thickness> 1.0000000e-02, 1.0000000e-02, 1.0000000e-02</thickness>
         </element>
         <element id="8276">
            <thickness> 1.0000000e-02, 1.0000000e-02, 1.0000000e-02</thickness>
         </element>
         <element id="8277">
            <thickness> 1.0000000e-02, 1.0000000e-02, 1.0000000e-02</thickness>
         </element>
         <element id="8278">
            <thickness> 1.0000000e-02, 1.0000000e-02, 1.0000000e-02</thickness>
         </element>
         <element id="8279">
            <thickness> 1.0000000e-02, 1.0000000e-02, 1.0000000e-02</thickness>
         </element>
         <element id="8280">
            <thickness> 1.0000000e-02, 1.0000000e-02, 1.0000000e-02</thickness>
         </element>
         <element id="8281">
            <thickness> 1.0000000e-02, 1.0000000e-02, 1.0000000e-02</thickness>
         </element>
         <element id="8282">
            <thickness> 1.0000000e-02, 1.0000000e-02, 1.0000000e-02</thickness>
         </element>
         <element id="8283">
            <thickness> 1.0000000e-02, 1.0000000e-02, 1.0000000e-02</thickness>
         </element>
         <element id="8284">
            <thickness> 1.0000000e-02, 1.0000000e-02, 1.0000000e-02</thickness>
         </element>
         <element id="8285">
            <thickness> 1.0000000e-02, 1.0000000e-02, 1.0000000e-02</thickness>
         </element>
         <element id="8286">
            <thickness> 1.0000000e-02, 1.0000000e-02, 1.0000000e-02</thickness>
         </element>
         <element id="8287">
            <thickness> 1.0000000e-02, 1.0000000e-02, 1.0000000e-02</thickness>
         </element>
         <element id="8288">
            <thickness> 1.0000000e-02, 1.0000000e-02, 1.0000000e-02</thickness>
         </element>
         <element id="8289">
            <thickness> 1.0000000e-02, 1.0000000e-02, 1.0000000e-02</thickness>
         </element>
         <element id="8290">
            <thickness> 1.0000000e-02, 1.0000000e-02, 1.0000000e-02</thickness>
         </element>
         <element id="8291">
            <thickness> 1.0000000e-02, 1.0000000e-02, 1.0000000e-02</thickness>
         </element>
         <element id="8292">
            <thickness> 1.0000000e-02, 1.0000000e-02, 1.0000000e-02</thickness>
         </element>
         <element id="8293">
            <thickness> 1.0000000e-02, 1.0000000e-02, 1.0000000e-02</thickness>
         </element>
         <element id="8294">
            <thickness> 1.0000000e-02, 1.0000000e-02, 1.0000000e-02</thickness>
         </element>
         <element id="8295">
            <thickness> 1.0000000e-02, 1.0000000e-02, 1.0000000e-02</thickness>
         </element>
         <element id="8296">
            <thickness> 1.0000000e-02, 1.0000000e-02, 1.0000000e-02</thickness>
         </element>
         <element id="8297">
            <thickness> 1.0000000e-02, 1.0000000e-02, 1.0000000e-02</thickness>
         </element>
         <element id="8298">
            <thickness> 1.0000000e-02, 1.0000000e-02, 1.0000000e-02</thickness>
         </element>
         <element id="8299">
            <thickness> 1.0000000e-02, 1.0000000e-02, 1.0000000e-02</thickness>
         </element>
         <element id="8300">
            <thickness> 1.0000000e-02, 1.0000000e-02, 1.0000000e-02</thickness>
         </element>
         <element id="8301">
            <thickness> 1.0000000e-02, 1.0000000e-02, 1.0000000e-02</thickness>
         </element>
         <element id="8302">
            <thickness> 1.0000000e-02, 1.0000000e-02, 1.0000000e-02</thickness>
         </element>
         <element id="8303">
            <thickness> 1.0000000e-02, 1.0000000e-02, 1.0000000e-02</thickness>
         </element>
         <element id="8304">
            <thickness> 1.0000000e-02, 1.0000000e-02, 1.0000000e-02</thickness>
         </element>
         <element id="8305">
            <thickness> 1.0000000e-02, 1.0000000e-02, 1.0000000e-02</thickness>
         </element>
         <element id="8306">
            <thickness> 1.0000000e-02, 1.0000000e-02, 1.0000000e-02</thickness>
         </element>
         <element id="8307">
            <thickness> 1.0000000e-02, 1.0000000e-02, 1.0000000e-02</thickness>
         </element>
         <element id="8308">
            <thickness> 1.0000000e-02, 1.0000000e-02, 1.0000000e-02</thickness>
         </element>
         <element id="8309">
            <thickness> 1.0000000e-02, 1.0000000e-02, 1.0000000e-02</thickness>
         </element>
         <element id="8310">
            <thickness> 1.0000000e-02, 1.0000000e-02, 1.0000000e-02</thickness>
         </element>
         <element id="8311">
            <thickness> 1.0000000e-02, 1.0000000e-02, 1.0000000e-02</thickness>
         </element>
         <element id="8312">
            <thickness> 1.0000000e-02, 1.0000000e-02, 1.0000000e-02</thickness>
         </element>
         <element id="8313">
            <thickness> 1.0000000e-02, 1.0000000e-02, 1.0000000e-02</thickness>
         </element>
         <element id="8314">
            <thickness> 1.0000000e-02, 1.0000000e-02, 1.0000000e-02</thickness>
         </element>
         <element id="8315">
            <thickness> 1.0000000e-02, 1.0000000e-02, 1.0000000e-02</thickness>
         </element>
         <element id="8316">
            <thickness> 1.0000000e-02, 1.0000000e-02, 1.0000000e-02</thickness>
         </element>
         <element id="8317">
            <thickness> 1.0000000e-02, 1.0000000e-02, 1.0000000e-02</thickness>
         </element>
         <element id="8318">
            <thickness> 1.0000000e-02, 1.0000000e-02, 1.0000000e-02</thickness>
         </element>
         <element id="8319">
            <thickness> 1.0000000e-02, 1.0000000e-02, 1.0000000e-02</thickness>
         </element>
         <element id="8320">
            <thickness> 1.0000000e-02, 1.0000000e-02, 1.0000000e-02</thickness>
         </element>
         <element id="8321">
            <thickness> 1.0000000e-02, 1.0000000e-02, 1.0000000e-02</thickness>
         </element>
         <element id="8322">
            <thickness> 1.0000000e-02, 1.0000000e-02, 1.0000000e-02</thickness>
         </element>
      </ElementData>
      <Surface name="Contact_master_indentor">
         <tri3 id="1">   1542,   1563,   1554</tri3>
         <tri3 id="2">   1535,   1534,   1525</tri3>
         <tri3 id="3">   1516,   1535,   1525</tri3>
         <tri3 id="4">   1506,   1516,   1525</tri3>
         <tri3 id="5">   1515,   1506,   1525</tri3>
         <tri3 id="6">   1659,   1661,   1643</tri3>
         <tri3 id="7">   1618,   1614,   1599</tri3>
         <tri3 id="8">   1619,   1602,   1603</tri3>
         <tri3 id="9">   1660,   1639,   1646</tri3>
         <tri3 id="10">   1614,   1587,   1599</tri3>
         <tri3 id="11">   1639,   1625,   1646</tri3>
         <tri3 id="12">   1587,   1583,   1599</tri3>
         <tri3 id="13">   1583,   1600,   1599</tri3>
         <tri3 id="14">   1584,   1588,   1603</tri3>
         <tri3 id="15">   1543,   1539,   1557</tri3>
         <tri3 id="16">   1664,   1660,   1646</tri3>
         <tri3 id="17">   1638,   1659,   1643</tri3>
         <tri3 id="18">   1600,   1618,   1599</tri3>
         <tri3 id="19">   1615,   1619,   1603</tri3>
         <tri3 id="20">   1563,   1575,   1554</tri3>
<!-- ... 396 like lines cut -->
      </Surface>
      <Surface name="Contact_slave_gel">
         <tri3 id="1">   284,   316,   274</tri3>
         <tri3 id="2">   4,   11,   33</tri3>
         <tri3 id="3">   55,   21,   43</tri3>
         <tri3 id="4">   43,   21,   4</tri3>
         <tri3 id="5">   41,   66,   51</tri3>
         <tri3 id="6">   92,   109,   146</tri3>
         <tri3 id="7">   66,   63,   98</tri3>
         <tri3 id="8">   254,   187,   216</tri3>
         <tri3 id="9">   109,   172,   146</tri3>
         <tri3 id="10">   37,   79,   59</tri3>
         <tri3 id="11">   303,   316,   284</tri3>
         <tri3 id="12">   37,   21,   55</tri3>
         <tri3 id="13">   59,   109,   92</tri3>
         <tri3 id="14">   172,   237,   212</tri3>
         <tri3 id="15">   237,   274,   212</tri3>
         <tri3 id="16">   172,   212,   146</tri3>
         <tri3 id="17">   79,   37,   55</tri3>
         <tri3 id="18">   109,   59,   79</tri3>
         <tri3 id="19">   33,   43,   4</tri3>
         <tri3 id="20">   25,   33,   11</tri3>
<!-- ... 341 like lines cut -->
      </Surface>
      <NodeSet name="indBC_fix">
         <node id="1"/>
         <node id="2"/>
         <node id="3"/>
         <node id="4"/>
         <node id="5"/>
         <node id="6"/>
         <node id="7"/>
         <node id="8"/>
         <node id="9"/>
         <node id="10"/>
         <node id="11"/>
         <node id="12"/>
         <node id="13"/>
         <node id="14"/>
         <node id="15"/>
         <node id="16"/>
         <node id="17"/>
         <node id="18"/>
         <node id="19"/>
         <node id="20"/>
<!-- ... 201 like lines cut -->
      </NodeSet>
   </Geometry>
   <Boundary>
      <fix bc="x" set="indBC_fix"/>
      <fix bc="y" set="indBC_fix"/>
      <fix bc="z" set="indBC_fix"/>
   </Boundary>
   <Contact>
      <contact type="facet-to-facet sliding">
         <penalty>1.000000e+02</penalty>
         <auto_penalty>1.000000e+00</auto_penalty>
         <two_pass>0.000000e+00</two_pass>
         <laugon>0.000000e+00</laugon>
         <tolerance>1.000000e-01</tolerance>
         <gaptol>0.000000e+00</gaptol>
         <minaug>0.000000e+00</minaug>
         <maxaug>1.000000e+01</maxaug>
         <seg_up>0.000000e+00</seg_up>
         <search_tol>1.000000e-02</search_tol>
         <surface set="Contact_master_indentor" type="master"/>
         <surface set="Contact_slave_gel" type="slave"/>
      </contact>
   </Contact>
   <Constraints>
      <rigid_body mat="2">
         <fixed bc="Rx"/>
         <fixed bc="Ry"/>
         <fixed bc="Rz"/>
         <prescribed bc="x" lc="1">0.0000000e+00</prescribed>
         <prescribed bc="y" lc="1">0.0000000e+00</prescribed>
         <prescribed bc="z" lc="1">-1.5100000e+01</prescribed>
      </rigid_body>
   </Constraints>
   <LoadData>
      <loadcurve id="1" type="linear">
         <loadpoint>0.000000, 0.000000</loadpoint>
         <loadpoint>1.000000, 1.000000</loadpoint>
      </loadcurve>
   </LoadData>
   <Output>
      <plotfile type="febio">
         <var type="displacement"/>
         <var type="stress"/>
         <var type="relative volume"/>
      </plotfile>
      <logfile>
         <node_data data="ux;uy;uz" delim=", " file="tempModel_node_out.txt"/>
      </logfile>
   </Output>
</febio_spec>
