<?xml version="1.0" encoding="utf-8"?>
<!-- 
Created using GIBBON, 09-Oct-2014 14:07:12
-->
<febio_spec version="2.0">
   <Module type="solid"/>
   <Control>
      <time_steps>50.000000</time_steps>
      <step_size>0.020000</step_size>
      <max_refs>25.000000</max_refs>
      <max_ups>10.000000</max_ups>
      <dtol>0.001000</dtol>
      <etol>0.010000</etol>
      <rtol>0.000000</rtol>
      <lstol>0.900000</lstol>
      <analysis type="static"/>
      <time_stepper>
         <dtmin>0.000020</dtmin>
         <dtmax>0.020000</dtmax>
         <max_retries>5.000000</max_retries>
         <opt_iter>10.000000</opt_iter>
         <aggressiveness>1.000000</aggressiveness>
      </time_stepper>
   </Control>
   <Globals>
      <Constants>
         <T>0.0000000e+00</T>
         <R>0.0000000e+00</R>
         <Fc>0.0000000e+00</Fc>
      </Constants>
   </Globals>
   <Material>
      <material id="1" name="mat_1" type="Mooney-Rivlin">
         <c1>1.0000000e+25</c1>
         <c2>0.0000000e+00</c2>
         <k>1.0000000e+27</k>
      </material>
   </Material>
   <Geometry>
      <Nodes>
         <node id="1">-5.1877822e+01, -1.2485266e+01, 1.7047574e+01</node>
         <node id="2">-5.1177763e+01, -1.0904635e+01, 1.2999934e+01</node>
         <node id="3">-5.1279175e+01, -1.5345708e+01, 2.0914628e+01</node>
         <node id="4">-5.1995558e+01, -1.1711033e+01, 2.0436727e+01</node>
         <node id="5">-5.1260881e+01, -1.1465799e+01, 2.5767515e+01</node>
         <node id="6">-5.1448852e+01, -8.4412958e+00, 1.9241456e+01</node>
         <node id="7">-5.0580493e+01, -5.3679099e+00, 2.7570663e+01</node>
         <node id="8">-5.0303848e+01, -6.7706737e+00, 1.3016712e+01</node>
         <node id="9">-5.0485208e+01, -1.7079657e+01, 1.4487351e+01</node>
         <node id="10">-4.9871766e+01, -1.3530496e+01, 1.0146681e+01</node>
         <node id="11">-4.9740593e+01, -4.6387714e+00, 3.4506829e+01</node>
         <node id="12">-5.0247607e+01, -9.4342988e+00, 3.2934267e+01</node>
         <node id="13">-5.0388874e+01, -1.5988105e+01, 2.7100066e+01</node>
         <node id="14">-5.0160824e+01, -4.2140707e+00, 2.2005333e+01</node>
         <node id="15">-5.0099839e+01, -4.9048614e+00, 1.7404921e+01</node>
         <node id="16">-4.9902285e+01, -1.9115191e+01, 2.4661178e+01</node>
         <node id="17">-4.8922111e+01, -9.0201997e+00, 8.5916231e+00</node>
         <node id="18">-4.9378294e+01, -1.4849156e+01, 3.3427588e+01</node>
         <node id="19">-4.9841140e+01, -2.0794593e+01, 1.9913477e+01</node>
         <node id="20">-4.9096290e+01, -1.2118099e+01, 3.7029687e+01</node>
<!-- ... 8529 like lines cut -->
      </Nodes>
      <Elements mat="1" name="Femur" type="tet4">
         <elem id="1">   3060,   5785,   6154,   7021</elem>
         <elem id="2">   3146,   3052,   3772,   7791</elem>
         <elem id="3">   2230,   2062,   4158,   5009</elem>
         <elem id="4">   1227,   1274,   1232,   3390</elem>
         <elem id="5">   899,   801,   4140,   4573</elem>
         <elem id="6">   2513,   2574,   3660,   4474</elem>
         <elem id="7">   4823,   3440,   5387,   5783</elem>
         <elem id="8">   1048,   1086,   7040,   7108</elem>
         <elem id="9">   4294,   6533,   8239,   8315</elem>
         <elem id="10">   2059,   2152,   3572,   5718</elem>
         <elem id="11">   2366,   4789,   5187,   5388</elem>
         <elem id="12">   2119,   2164,   3342,   4785</elem>
         <elem id="13">   4119,   2221,   4353,   7071</elem>
         <elem id="14">   1435,   1526,   4284,   5233</elem>
         <elem id="15">   1830,   1899,   3941,   4555</elem>
         <elem id="16">   4381,   989,   7217,   8450</elem>
         <elem id="17">   3939,   6240,   7319,   7936</elem>
         <elem id="18">   4321,   3028,   4679,   5766</elem>
         <elem id="19">   5996,   3469,   6689,   6742</elem>
         <elem id="20">   5142,   5003,   6354,   7596</elem>
<!-- ... 43809 like lines cut -->
      </Elements>
      <NodeSet name="bcRigidList"> 1019, 2668</NodeSet>
      <NodeSet name="bcPrescribeList">  385, 1826, 2725, 2288, 2725,  541, 1965, 7545</NodeSet>
   </Geometry>
   <Boundary>
      <fix bc="x" set="bcRigidList"/>
      <fix bc="y" set="bcRigidList"/>
      <fix bc="z" set="bcRigidList"/>
      <fix bc="u" set="bcRigidList"/>
      <fix bc="v" set="bcRigidList"/>
      <fix bc="w" set="bcRigidList"/>
   </Boundary>
   <Loads>
      <nodal_load bc="x" lc="1">
         <node id="385">3.9846127e+00</node>
         <node id="1826">-1.6601240e+01</node>
         <node id="2725">1.2970504e+01</node>
         <node id="2288">-3.5507988e+01</node>
         <node id="2725">2.6237581e+01</node>
         <node id="541">8.3307976e-01</node>
         <node id="1965">-2.8875225e+01</node>
         <node id="7545">6.6173219e+00</node>
      </nodal_load>
      <nodal_load bc="y" lc="1">
         <node id="385">6.3669230e+00</node>
         <node id="1826">-1.0914861e+01</node>
         <node id="2725">-9.7781567e+00</node>
         <node id="2288">-6.5739638e+01</node>
         <node id="2725">-9.1777811e+00</node>
         <node id="541">5.6091026e+00</node>
         <node id="1965">4.6397590e+02</node>
         <node id="7545">-3.4361566e+02</node>
      </nodal_load>
      <nodal_load bc="z" lc="1">
         <node id="385">9.5381270e-01</node>
         <node id="1826">-6.9479548e+00</node>
         <node id="2725">5.5864472e+00</node>
         <node id="2288">-1.1616196e+01</node>
         <node id="2725">1.0845135e+01</node>
         <node id="541">-8.4840804e-01</node>
         <node id="1965">-1.7617465e+01</node>
         <node id="7545">3.7827693e+01</node>
      </nodal_load>
   </Loads>
   <LoadData>
      <loadcurve id="1" type="linear">
         <loadpoint>0.000000, 0.000000</loadpoint>
         <loadpoint>1.000000, 1.000000</loadpoint>
      </loadcurve>
   </LoadData>
   <Output>
      <plotfile type="febio">
         <var type="displacement"/>
         <var type="stress"/>
         <var type="relative volume"/>
      </plotfile>
      <logfile>
         <node_data data="ux;uy;uz" delim=", " file="/data/MATLAB/GIBBON/trunk/data/temp/tempModel_node_out.txt"/>
      </logfile>
   </Output>
</febio_spec>
