<?xml version="1.0" encoding="utf-8"?>
<!-- 
Created using GIBBON, 07-Nov-2014 18:39:10
-->
<febio_spec version="2.0">
   <Module type="solid"/>
   <Control>
      <time_steps>20.000000</time_steps>
      <step_size>0.050000</step_size>
      <max_refs>25.000000</max_refs>
      <max_ups>0.000000</max_ups>
      <dtol>0.001000</dtol>
      <etol>0.010000</etol>
      <rtol>0.000000</rtol>
      <lstol>0.900000</lstol>
      <analysis type="static"/>
      <time_stepper>
         <dtmin>0.000100</dtmin>
         <dtmax>0.050000</dtmax>
         <max_retries>5.000000</max_retries>
         <opt_iter>10.000000</opt_iter>
         <aggressiveness>1.000000</aggressiveness>
      </time_stepper>
   </Control>
   <Globals>
      <Constants>
         <T>0.0000000e+00</T>
         <R>0.0000000e+00</R>
         <Fc>0.0000000e+00</Fc>
      </Constants>
   </Globals>
   <Material>
      <material id="1" name="cube_mat" type="Mooney-Rivlin">
         <c1>1.0000000e-03</c1>
         <c2>0.0000000e+00</c2>
         <k>1.0000000e+00</k>
      </material>
   </Material>
   <Geometry>
      <Nodes>
         <node id="1">-6.1261057e+00, -6.1261057e+00, -4.3586718e+00</node>
         <node id="2">-6.1261057e+00, -6.1261057e+00, -4.0840704e+00</node>
         <node id="3">-6.1261057e+00, -6.1261057e+00, -3.5735616e+00</node>
         <node id="4">-6.1261057e+00, -6.1261057e+00, -3.0630528e+00</node>
         <node id="5">-6.1261057e+00, -6.1261057e+00, -2.6939026e+00</node>
         <node id="6">-6.1261057e+00, -6.1261057e+00, 4.5311587e-01</node>
         <node id="7">-6.1261057e+00, -6.1261057e+00, 5.1050881e-01</node>
         <node id="8">-6.1261057e+00, -6.1261057e+00, 1.0210176e+00</node>
         <node id="9">-6.1261057e+00, -6.1261057e+00, 1.5315264e+00</node>
         <node id="10">-6.1261057e+00, -6.1261057e+00, 1.8079057e+00</node>
         <node id="11">-6.1261057e+00, -6.1261057e+00, 5.1362583e+00</node>
         <node id="12">-6.1261057e+00, -6.1261057e+00, 5.6155969e+00</node>
         <node id="13">-6.1261057e+00, -6.1261057e+00, 6.1261057e+00</node>
         <node id="14">-6.1261057e+00, -6.0830757e+00, 5.1050881e+00</node>
         <node id="15">-6.1261057e+00, -6.0333444e+00, -2.5525440e+00</node>
         <node id="16">-6.1261057e+00, -6.0130729e+00, 2.0420352e+00</node>
         <node id="17">-6.1261057e+00, -5.7434413e+00, 2.5525440e+00</node>
         <node id="18">-6.1261057e+00, -5.6232669e+00, -2.0420352e+00</node>
         <node id="19">-6.1261057e+00, -5.6155969e+00, -4.5555116e+00</node>
         <node id="20">-6.1261057e+00, -5.6155969e+00, -4.0840704e+00</node>
<!-- ... 8635 like lines cut -->
      </Nodes>
      <Elements mat="1" name="Trabeculae" type="tet4">
         <elem id="1">   7631,   6359,   8083,   8367</elem>
         <elem id="2">   5999,   5713,   5984,   5708</elem>
         <elem id="3">   3738,   3726,   6361,   7550</elem>
         <elem id="4">   5849,   5711,   5918,   8444</elem>
         <elem id="5">   5048,   5046,   6398,   6767</elem>
         <elem id="6">   4462,   4397,   7276,   7561</elem>
         <elem id="7">   2232,   2348,   7522,   8460</elem>
         <elem id="8">   4382,   4597,   4378,   8373</elem>
         <elem id="9">   521,   553,   563,   541</elem>
         <elem id="10">   632,   631,   743,   634</elem>
         <elem id="11">   6697,   7246,   7688,   7829</elem>
         <elem id="12">   3465,   3331,   3444,   8370</elem>
         <elem id="13">   323,   271,   259,   260</elem>
         <elem id="14">   6757,   7222,   8434,   8616</elem>
         <elem id="15">   775,   586,   590,   8219</elem>
         <elem id="16">   1018,   978,   982,   821</elem>
         <elem id="17">   4776,   4783,   6488,   8351</elem>
         <elem id="18">   5108,   5107,   6411,   7287</elem>
         <elem id="19">   462,   183,   6592,   8257</elem>
         <elem id="20">   3479,   3758,   3714,   3761</elem>
<!-- ... 33098 like lines cut -->
      </Elements>
      <NodeSet name="bcFixList">  111,  112,  116,  123,  136,  153,  170,  187,  205,  216,  224,  232,  311,  331,  349,  423,  425,  432,  442,  448,  457,  467,  475,  477,  517,
  526,  543,  554,  561,  584,  634,  641,  651,  661,  667,  677,  727,  743,  768,  778,  802,  824,  832,  842,  876,  880,  890,  902,  908,  914,
 1043, 1054, 1064, 1080, 1088, 1094, 1100, 1122, 1123, 1133, 1145, 1154, 1159, 1166, 1303, 1305, 1310, 1323, 1329, 1335, 1341, 1346, 1354, 1364, 1365,
 1373, 1382, 1392, 1400, 1403, 1517, 1520, 1582, 1585, 1587, 1592, 1598, 1605, 1612, 1619, 1627, 1635, 1646, 1653, 1660, 1764, 1797, 1803, 1810, 1828,
 1844, 1846, 1847, 1851, 1857, 1864, 1871, 1877, 1885, 1896, 1904, 1911, 1955, 1956, 1969, 1975, 1987, 2028, 2037, 2049, 2061, 2081, 2082, 2086, 2094,
 2103, 2110, 2120, 2126, 2177, 2178, 2188, 2190, 2200, 2211, 2241, 2264, 2293, 2294, 2301, 2312, 2322, 2330, 2336, 2388, 2389, 2395, 2404, 2411, 2419,
 2428, 2460, 2469, 2504, 2524, 2527, 2539, 2550, 2558, 2567, 2632, 2634, 2637, 2642, 2648, 2655, 2718, 2740, 2743, 2756, 2766, 2777, 2783, 2862, 2863,
 2865, 2870, 2876, 2984, 2990, 2997, 3003, 3005, 3014, 3108, 3109, 3112, 3116, 3124, 3142, 3224, 3230, 3236, 3245, 3252, 3256, 3357, 3359, 3363, 3373,
 3426, 3489, 3491, 3498, 3501, 3506, 3618, 3620, 3629, 3639, 3667, 3676, 3680, 3684, 3690, 3723, 3732, 3815, 3816, 3825, 3835, 3840, 3848, 3892, 3898,
 3910, 3920, 3962, 4001, 4075, 4076, 4085, 4097, 4101, 4111, 4117, 4147, 4150, 4161, 4175, 4181, 4248, 4264, 4335, 4336, 4346, 4348, 4354, 4360, 4366,
 4373, 4389, 4391, 4400, 4412, 4420, 4422, 4463, 4466, 4474, 4479, 4569, 4570, 4572, 4574, 4578, 4585, 4592, 4598, 4604, 4613, 4621, 4631, 4636, 4646,
 4667, 4678, 4733, 4828, 4829, 4831, 4837, 4844, 4851, 4857, 4865, 4874, 4885, 4892, 4894, 4917, 4950, 4965, 5065, 5066, 5068, 5073, 5081, 5088, 5094,
 5102, 5114, 5141, 5151, 5176, 5191, 5232, 5233, 5239, 5285, 5286, 5296, 5306, 5315, 5323, 5360, 5370, 5387, 5399, 5408, 5411, 5418, 5434, 5440, 5447,
 5455, 5468, 5473, 5479, 5524, 5531, 5542, 5552, 5561, 5568, 5601, 5622, 5667, 5684, 5690, 5696, 5703, 5715, 5725, 5729, 5771, 5772, 5784, 5795, 5804,
 5811, 5922, 5939, 5956, 5972, 5990, 6004, 6017, 6028, 6108, 6111, 6133, 6157, 6179, 6211</NodeSet>
      <NodeSet name="bcPrescribeList">   13,   36,   60,   80,   96,  101,  151,  168,  184,  186,  317,  351,  375,  384,  390,  398,  408,  409,  441,  447,  453,  462,  470,  472,  536,
  581,  588,  596,  600,  607,  659,  666,  672,  682,  689,  692,  745,  777,  821,  827,  828,  907,  911,  919,  931,  939,  941,  978, 1007, 1018,
 1042, 1055, 1164, 1174, 1184, 1193, 1195, 1196, 1212, 1218, 1221, 1239, 1254, 1288, 1293, 1302, 1424, 1428, 1434, 1441, 1443, 1450, 1460, 1472, 1480,
 1487, 1500, 1509, 1512, 1533, 1536, 1560, 1694, 1698, 1708, 1721, 1730, 1733, 1741, 1757, 1837, 1950, 1963, 1972, 1978, 1990, 1998, 2016, 2034, 2053,
 2067, 2192, 2205, 2217, 2231, 2233, 2246, 2248, 2258, 2266, 2283, 2321, 2327, 2335, 2342, 2344, 2470, 2507, 2556, 2561, 2571, 2581, 2585, 2588, 2608,
 2614, 2615, 2673, 2688, 2697, 2773, 2780, 2785, 2799, 2804, 2807, 2809, 2820, 2828, 2836, 2844, 2849, 2895, 2902, 2918, 2921, 2963, 3007, 3025, 3033,
 3039, 3044, 3046, 3048, 3053, 3066, 3078, 3085, 3092, 3100, 3205, 3265, 3275, 3279, 3285, 3289, 3293, 3306, 3318, 3325, 3333, 3343, 3345, 3460, 3520,
 3526, 3535, 3540, 3548, 3556, 3567, 3577, 3584, 3588, 3599, 3603, 3638, 3656, 3673, 3692, 3725, 3793, 3800, 3806, 3813, 3821, 3830, 3838, 3843, 3847,
 3919, 3941, 3949, 3973, 3974, 4051, 4059, 4067, 4073, 4081, 4090, 4091, 4209, 4255, 4256, 4280, 4282, 4301, 4307, 4316, 4325, 4332, 4341, 4344, 4465,
 4495, 4505, 4509, 4510, 4528, 4537, 4543, 4552, 4562, 4567, 4706, 4752, 4757, 4758, 4779, 4787, 4796, 4803, 4816, 4826, 4827, 4932, 4953, 4967, 4973,
 4986, 4992, 4996, 4998, 4999, 5008, 5019, 5030, 5037, 5043, 5051, 5060, 5148, 5181, 5183, 5186, 5202, 5207, 5211, 5215, 5226, 5238, 5248, 5253, 5260,
 5270, 5313, 5320, 5327, 5330, 5364, 5372, 5373, 5374, 5375, 5388, 5389, 5432, 5439, 5445, 5452, 5460, 5461, 5551, 5557, 5566, 5576, 5582, 5585, 5624,
 5646, 5681, 5689, 5695, 5701, 5702, 5801, 5807, 5813, 5825, 5831, 5835, 5837, 5860, 5894, 5902, 5906, 5937, 5954, 5970, 5985, 5988, 6201, 6230, 6249,
 6262, 6267, 6270, 6273, 6275</NodeSet>
   </Geometry>
   <Boundary>
      <fix bc="x" set="bcFixList"/>
      <fix bc="y" set="bcFixList"/>
      <fix bc="z" set="bcFixList"/>
      <prescribe bc="x" lc="1" scale="0" set="bcPrescribeList" type="relative"/>
      <prescribe bc="y" lc="1" scale="0" set="bcPrescribeList" type="relative"/>
      <prescribe bc="z" lc="1" scale="-1.500000e+00" set="bcPrescribeList" type="relative"/>
   </Boundary>
   <LoadData>
      <loadcurve id="1" type="linear">
         <loadpoint>0.000000, 0.000000</loadpoint>
         <loadpoint>1.000000, 1.000000</loadpoint>
      </loadcurve>
   </LoadData>
   <Output>
      <plotfile type="febio">
         <var type="displacement"/>
         <var type="stress"/>
         <var type="relative volume"/>
         <var type="shell thickness"/>
      </plotfile>
      <logfile>
         <node_data data="ux;uy;uz" delim=", " file="/data/MATLAB/GIBBON/trunk/data/temp/tempModel_node_out.txt"/>
      </logfile>
   </Output>
</febio_spec>
