<?xml version="1.0" encoding="utf-8"?>
<febio_spec version="2.0"><!--Created using GIBBON, 16-Mar-2017 11:19:13-->
   <Module type="biphasic"/>
   <Control>
      <time_steps>5100.000000</time_steps>
      <step_size>0.001000</step_size>
      <max_refs>15.000000</max_refs>
      <max_ups>0.000000</max_ups>
      <dtol>0.001000</dtol>
      <etol>0.010000</etol>
      <rtol>0.000000</rtol>
      <lstol>0.900000</lstol>
      <ptol>0.010000</ptol>
      <symmetric_biphasic>1.000000</symmetric_biphasic>
      <analysis type="static"/>
      <time_stepper>
         <dtmin>0.000010</dtmin>
         <dtmax>0.510000</dtmax>
         <max_retries>5.000000</max_retries>
         <opt_iter>10.000000</opt_iter>
         <aggressiveness>0.000000</aggressiveness>
      </time_stepper>
   </Control>
   <Globals>
      <Constants>
         <T>0.0000000e+00</T>
         <R>0.0000000e+00</R>
         <Fc>0.0000000e+00</Fc>
      </Constants>
   </Globals>
   <Material>
      <material id="1" name="Block_material" type="biphasic">
         <phi0>5.0000000e-01</phi0>
         <permeability type="perm-const-iso">
            <perm>1.0000000e+04</perm>
         </permeability>
         <fluid_density>1.0000000e-09</fluid_density>
         <solid type="Ogden unconstrained">
            <c1>1.0000000e-03</c1>
            <m1>6.0000000e+00</m1>
            <cp>1.0000000e-03</cp>
            <density>1.0000000e-09</density>
         </solid>
      </material>
   </Material>
   <Geometry>
      <Nodes>
         <node id="1">-5.0000000e+00, -5.0000000e+00, -5.0000000e+00</node>
         <node id="2">-5.0000000e+00, -3.5714286e+00, -5.0000000e+00</node>
         <node id="3">-5.0000000e+00, -2.1428571e+00, -5.0000000e+00</node>
         <node id="4">-5.0000000e+00, -7.1428571e-01, -5.0000000e+00</node>
         <node id="5">-5.0000000e+00, 7.1428571e-01, -5.0000000e+00</node>
         <node id="6">-5.0000000e+00, 2.1428571e+00, -5.0000000e+00</node>
         <node id="7">-5.0000000e+00, 3.5714286e+00, -5.0000000e+00</node>
         <node id="8">-5.0000000e+00, 5.0000000e+00, -5.0000000e+00</node>
         <node id="9">-3.5714286e+00, -5.0000000e+00, -5.0000000e+00</node>
         <node id="10">-3.5714286e+00, -3.5714286e+00, -5.0000000e+00</node>
         <node id="11">-3.5714286e+00, -2.1428571e+00, -5.0000000e+00</node>
         <node id="12">-3.5714286e+00, -7.1428571e-01, -5.0000000e+00</node>
         <node id="13">-3.5714286e+00, 7.1428571e-01, -5.0000000e+00</node>
         <node id="14">-3.5714286e+00, 2.1428571e+00, -5.0000000e+00</node>
         <node id="15">-3.5714286e+00, 3.5714286e+00, -5.0000000e+00</node>
         <node id="16">-3.5714286e+00, 5.0000000e+00, -5.0000000e+00</node>
         <node id="17">-2.1428571e+00, -5.0000000e+00, -5.0000000e+00</node>
         <node id="18">-2.1428571e+00, -3.5714286e+00, -5.0000000e+00</node>
         <node id="19">-2.1428571e+00, -2.1428571e+00, -5.0000000e+00</node>
         <node id="20">-2.1428571e+00, -7.1428571e-01, -5.0000000e+00</node>
<!-- ... 492 like lines cut -->
      </Nodes>
      <Elements mat="1" name="Block" type="hex8">
         <elem id="1">   1,   9,   10,   2,   65,   73,   74,   66</elem>
         <elem id="2">   2,   10,   11,   3,   66,   74,   75,   67</elem>
         <elem id="3">   3,   11,   12,   4,   67,   75,   76,   68</elem>
         <elem id="4">   4,   12,   13,   5,   68,   76,   77,   69</elem>
         <elem id="5">   5,   13,   14,   6,   69,   77,   78,   70</elem>
         <elem id="6">   6,   14,   15,   7,   70,   78,   79,   71</elem>
         <elem id="7">   7,   15,   16,   8,   71,   79,   80,   72</elem>
         <elem id="8">   9,   17,   18,   10,   73,   81,   82,   74</elem>
         <elem id="9">   10,   18,   19,   11,   74,   82,   83,   75</elem>
         <elem id="10">   11,   19,   20,   12,   75,   83,   84,   76</elem>
         <elem id="11">   12,   20,   21,   13,   76,   84,   85,   77</elem>
         <elem id="12">   13,   21,   22,   14,   77,   85,   86,   78</elem>
         <elem id="13">   14,   22,   23,   15,   78,   86,   87,   79</elem>
         <elem id="14">   15,   23,   24,   16,   79,   87,   88,   80</elem>
         <elem id="15">   17,   25,   26,   18,   81,   89,   90,   82</elem>
         <elem id="16">   18,   26,   27,   19,   82,   90,   91,   83</elem>
         <elem id="17">   19,   27,   28,   20,   83,   91,   92,   84</elem>
         <elem id="18">   20,   28,   29,   21,   84,   92,   93,   85</elem>
         <elem id="19">   21,   29,   30,   22,   85,   93,   94,   86</elem>
         <elem id="20">   22,   30,   31,   23,   86,   94,   95,   87</elem>
<!-- ... 323 like lines cut -->
      </Elements>
      <NodeSet name="bcSupportList_Y_axis">
         <node id="1"/>
         <node id="2"/>
         <node id="3"/>
         <node id="4"/>
         <node id="5"/>
         <node id="6"/>
         <node id="7"/>
         <node id="8"/>
      </NodeSet>
      <NodeSet name="bcSupportList_X_axis">
         <node id="1"/>
         <node id="9"/>
         <node id="17"/>
         <node id="25"/>
         <node id="33"/>
         <node id="41"/>
         <node id="49"/>
         <node id="57"/>
      </NodeSet>
      <NodeSet name="bcSupportList_Z">
         <node id="1"/>
         <node id="2"/>
         <node id="3"/>
         <node id="4"/>
         <node id="5"/>
         <node id="6"/>
         <node id="7"/>
         <node id="8"/>
         <node id="9"/>
         <node id="10"/>
         <node id="11"/>
         <node id="12"/>
         <node id="13"/>
         <node id="14"/>
         <node id="15"/>
         <node id="16"/>
         <node id="17"/>
         <node id="18"/>
         <node id="19"/>
         <node id="20"/>
<!-- ... 44 like lines cut -->
      </NodeSet>
      <NodeSet name="bcPrescribeList">
         <node id="449"/>
         <node id="450"/>
         <node id="451"/>
         <node id="452"/>
         <node id="453"/>
         <node id="454"/>
         <node id="455"/>
         <node id="456"/>
         <node id="457"/>
         <node id="458"/>
         <node id="459"/>
         <node id="460"/>
         <node id="461"/>
         <node id="462"/>
         <node id="463"/>
         <node id="464"/>
         <node id="465"/>
         <node id="466"/>
         <node id="467"/>
         <node id="468"/>
<!-- ... 44 like lines cut -->
      </NodeSet>
   </Geometry>
   <Boundary>
      <fix bc="x" set="bcSupportList_Y_axis"/>
      <fix bc="y" set="bcSupportList_X_axis"/>
      <fix bc="z" set="bcSupportList_Z"/>
      <prescribe bc="z" lc="1" type="relative">
         <node id="449">-3.0000000e+00</node>
         <node id="450">-3.0000000e+00</node>
         <node id="451">-3.0000000e+00</node>
         <node id="452">-3.0000000e+00</node>
         <node id="453">-3.0000000e+00</node>
         <node id="454">-3.0000000e+00</node>
         <node id="455">-3.0000000e+00</node>
         <node id="456">-3.0000000e+00</node>
         <node id="457">-3.0000000e+00</node>
         <node id="458">-3.0000000e+00</node>
         <node id="459">-3.0000000e+00</node>
         <node id="460">-3.0000000e+00</node>
         <node id="461">-3.0000000e+00</node>
         <node id="462">-3.0000000e+00</node>
         <node id="463">-3.0000000e+00</node>
         <node id="464">-3.0000000e+00</node>
         <node id="465">-3.0000000e+00</node>
         <node id="466">-3.0000000e+00</node>
         <node id="467">-3.0000000e+00</node>
         <node id="468">-3.0000000e+00</node>
<!-- ... 44 like lines cut -->
      </prescribe>
      <prescribe bc="p" lc="1" scale="0" set="bcPrescribeList"/>
   </Boundary>
   <LoadData>
      <loadcurve id="1" type="linear">
         <loadpoint>0.000000, 0.000000</loadpoint>
         <loadpoint>0.100000, 1.000000</loadpoint>
         <loadpoint>5.100000, 1.000000</loadpoint>
      </loadcurve>
   </LoadData>
   <Output>
      <plotfile type="febio">
         <var type="displacement"/>
         <var type="stress"/>
         <var type="relative volume"/>
         <var type="effective fluid pressure"/>
         <var type="fluid flux"/>
      </plotfile>
      <logfile>
         <node_data data="ux;uy;uz" delim=", " file="tempModel_node_out.txt"/>
         <node_data data="Rx;Ry;Rz" delim=", " file="tempModel_force_out.txt"/>
      </logfile>
   </Output>
</febio_spec>
