<?xml version="1.0" encoding="utf-8"?>
<febio_spec version="2.0"><!--Created using GIBBON, 04-Aug-2015 14:27:36-->
   <Module type="solid"/>
   <Globals>
      <Constants>
         <T>0.0000000e+00</T>
         <R>0.0000000e+00</R>
         <Fc>0.0000000e+00</Fc>
      </Constants>
   </Globals>
   <Material>
      <material id="1" name="sphere_skin_mat" type="multigeneration">
         <generation id="1">
            <start_time>0.0000000e+00</start_time>
            <solid type="coupled Mooney-Rivlin">
               <c1>1.0000000e-06</c1>
               <c2>0.0000000e+00</c2>
               <k>1.0000000e-03</k>
            </solid>
         </generation>
         <generation id="2">
            <start_time>1.0000000e+00</start_time>
            <solid type="coupled Mooney-Rivlin">
               <c1>1.0000000e-04</c1>
               <c2>0.0000000e+00</c2>
               <k>1.0000000e-01</k>
            </solid>
         </generation>
      </material>
      <material id="2" name="sphere_mat" type="coupled Mooney-Rivlin">
         <c1>1.0000000e-03</c1>
         <c2>0.0000000e+00</c2>
         <k>1.0000000e+00</k>
      </material>
   </Material>
   <Geometry>
      <Nodes>
         <node id="1">8.8527302e-17, -1.4457606e+00, -2.3392897e+00</node>
         <node id="2">8.8527302e-17, -1.4457606e+00, 2.3392897e+00</node>
         <node id="3">8.8527302e-17, 1.4457606e+00, 2.3392897e+00</node>
         <node id="4">8.8527302e-17, 1.4457606e+00, -2.3392897e+00</node>
         <node id="5">-1.4457606e+00, -2.3392897e+00, 0.0000000e+00</node>
         <node id="6">-1.4457606e+00, 2.3392897e+00, 0.0000000e+00</node>
         <node id="7">1.4457606e+00, 2.3392897e+00, 0.0000000e+00</node>
         <node id="8">1.4457606e+00, -2.3392897e+00, 0.0000000e+00</node>
         <node id="9">-2.3392897e+00, 2.8648037e-16, -1.4457606e+00</node>
         <node id="10">2.3392897e+00, 0.0000000e+00, -1.4457606e+00</node>
         <node id="11">2.3392897e+00, 0.0000000e+00, 1.4457606e+00</node>
         <node id="12">-2.3392897e+00, 2.8648037e-16, 1.4457606e+00</node>
         <node id="13">1.6838893e-16, 0.0000000e+00, -2.7500000e+00</node>
         <node id="14">-8.4979673e-01, -2.2247967e+00, -1.3750000e+00</node>
         <node id="15">8.4979673e-01, -2.2247967e+00, -1.3750000e+00</node>
         <node id="16">-1.3750000e+00, -8.4979673e-01, -2.2247967e+00</node>
         <node id="17">1.3750000e+00, -8.4979673e-01, -2.2247967e+00</node>
         <node id="18">1.6838893e-16, 0.0000000e+00, 2.7500000e+00</node>
         <node id="19">-8.4979673e-01, -2.2247967e+00, 1.3750000e+00</node>
         <node id="20">8.4979673e-01, -2.2247967e+00, 1.3750000e+00</node>
<!-- ... 5075 like lines cut -->
      </Nodes>
      <Elements mat="1" name="Sphere_1" type="tet4">
         <elem id="1">   25,   297,   2089,   2173</elem>
         <elem id="2">   767,   1118,   1112,   1759</elem>
         <elem id="3">   953,   1384,   1782,   1984</elem>
         <elem id="4">   2475,   1340,   2525,   2558</elem>
         <elem id="5">   987,   1251,   1421,   2370</elem>
         <elem id="6">   369,   504,   1704,   2400</elem>
         <elem id="7">   1124,   832,   1824,   2516</elem>
         <elem id="8">   1566,   1296,   1872,   2101</elem>
         <elem id="9">   164,   407,   165,   1589</elem>
         <elem id="10">   1833,   1329,   2327,   2600</elem>
         <elem id="11">   1824,   1486,   1980,   2438</elem>
         <elem id="12">   585,   226,   2368,   2474</elem>
         <elem id="13">   579,   141,   2315,   2927</elem>
         <elem id="14">   145,   485,   1380,   2082</elem>
         <elem id="15">   1607,   474,   1953,   2521</elem>
         <elem id="16">   1357,   959,   2116,   2665</elem>
         <elem id="17">   659,   891,   2535,   2586</elem>
         <elem id="18">   126,   428,   2176,   2299</elem>
         <elem id="19">   1929,   1466,   2423,   2673</elem>
         <elem id="20">   438,   174,   177,   2657</elem>
<!-- ... 15334 like lines cut -->
      </Elements>
      <Elements mat="2" name="Sphere_2" type="tet4">
         <elem id="15355">   4249,   3742,   4270,   4561</elem>
         <elem id="15356">   3708,   3921,   4051,   4475</elem>
         <elem id="15357">   3596,   3168,   3964,   4798</elem>
         <elem id="15358">   3785,   4142,   4896,   4904</elem>
         <elem id="15359">   3254,   3525,   4423,   4476</elem>
         <elem id="15360">   3779,   4627,   4677,   5005</elem>
         <elem id="15361">   3831,   3749,   4076,   4481</elem>
         <elem id="15362">   4400,   4119,   4422,   4648</elem>
         <elem id="15363">   3904,   4229,   4345,   4878</elem>
         <elem id="15364">   3207,   3021,   3203,   4994</elem>
         <elem id="15365">   4152,   3691,   4309,   4932</elem>
         <elem id="15366">   3161,   3644,   4165,   4396</elem>
         <elem id="15367">   3172,   3789,   4378,   4465</elem>
         <elem id="15368">   3667,   4397,   4636,   4690</elem>
         <elem id="15369">   3127,   3608,   3349,   4399</elem>
         <elem id="15370">   3274,   3777,   4120,   4158</elem>
         <elem id="15371">   3340,   3077,   3476,   3946</elem>
         <elem id="15372">   3480,   3245,   3078,   3872</elem>
         <elem id="15373">   3906,   3908,   4744,   4808</elem>
         <elem id="15374">   3080,   3487,   4088,   4335</elem>
<!-- ... 11080 like lines cut -->
      </Elements>
      <Surface name="Contact_master">
         <tri3 id="1">   845,   846,   651</tri3>
         <tri3 id="2">   808,   806,   643</tri3>
         <tri3 id="3">   806,   807,   643</tri3>
         <tri3 id="4">   850,   853,   652</tri3>
         <tri3 id="5">   820,   824,   646</tri3>
         <tri3 id="6">   829,   826,   647</tri3>
         <tri3 id="7">   861,   860,   654</tri3>
         <tri3 id="8">   863,   861,   654</tri3>
         <tri3 id="9">   864,   863,   654</tri3>
         <tri3 id="10">   862,   864,   654</tri3>
         <tri3 id="11">   854,   852,   652</tri3>
         <tri3 id="12">   844,   843,   650</tri3>
         <tri3 id="13">   813,   812,   644</tri3>
         <tri3 id="14">   818,   815,   645</tri3>
         <tri3 id="15">   839,   835,   649</tri3>
         <tri3 id="16">   812,   811,   644</tri3>
         <tri3 id="17">   852,   851,   652</tri3>
         <tri3 id="18">   835,   837,   649</tri3>
         <tri3 id="19">   831,   832,   648</tri3>
         <tri3 id="20">   833,   831,   648</tri3>
<!-- ... 1260 like lines cut -->
      </Surface>
      <Surface name="Contact_slave">
         <tri3 id="1">   3024,   3219,   3218</tri3>
         <tri3 id="2">   3016,   3179,   3181</tri3>
         <tri3 id="3">   3016,   3180,   3179</tri3>
         <tri3 id="4">   3025,   3226,   3223</tri3>
         <tri3 id="5">   3019,   3197,   3193</tri3>
         <tri3 id="6">   3020,   3199,   3202</tri3>
         <tri3 id="7">   3027,   3233,   3234</tri3>
         <tri3 id="8">   3027,   3234,   3236</tri3>
         <tri3 id="9">   3027,   3236,   3237</tri3>
         <tri3 id="10">   3027,   3237,   3235</tri3>
         <tri3 id="11">   3025,   3225,   3227</tri3>
         <tri3 id="12">   3023,   3216,   3217</tri3>
         <tri3 id="13">   3017,   3185,   3186</tri3>
         <tri3 id="14">   3018,   3188,   3191</tri3>
         <tri3 id="15">   3022,   3208,   3212</tri3>
         <tri3 id="16">   3017,   3184,   3185</tri3>
         <tri3 id="17">   3025,   3224,   3225</tri3>
         <tri3 id="18">   3022,   3210,   3208</tri3>
         <tri3 id="19">   3021,   3205,   3204</tri3>
         <tri3 id="20">   3021,   3204,   3206</tri3>
<!-- ... 1260 like lines cut -->
      </Surface>
      <NodeSet name="set_1">
         <node id="643"/>
         <node id="644"/>
         <node id="645"/>
         <node id="646"/>
         <node id="647"/>
         <node id="648"/>
         <node id="649"/>
         <node id="650"/>
         <node id="651"/>
         <node id="652"/>
         <node id="653"/>
         <node id="654"/>
         <node id="655"/>
         <node id="656"/>
         <node id="657"/>
         <node id="658"/>
         <node id="659"/>
         <node id="660"/>
         <node id="661"/>
         <node id="662"/>
<!-- ... 622 like lines cut -->
      </NodeSet>
   </Geometry>
   <Boundary>
      <prescribe bc="x" lc="1">
         <node id="643">1.0408341e-17</node>
         <node id="644">1.7347235e-17</node>
         <node id="645">2.1593070e-17</node>
         <node id="646">2.6979188e-17</node>
         <node id="647">2.6190623e-01</node>
         <node id="648">2.6190623e-01</node>
         <node id="649">-2.6190623e-01</node>
         <node id="650">-2.6190623e-01</node>
         <node id="651">4.2377318e-01</node>
         <node id="652">-4.2377318e-01</node>
         <node id="653">-4.2377318e-01</node>
         <node id="654">4.2377318e-01</node>
         <node id="655">-1.6190752e-17</node>
         <node id="656">1.5391697e-01</node>
         <node id="657">-1.5391697e-01</node>
         <node id="658">2.4904289e-01</node>
         <node id="659">-2.4904289e-01</node>
         <node id="660">-1.7347235e-17</node>
         <node id="661">1.5391697e-01</node>
         <node id="662">-1.5391697e-01</node>
<!-- ... 622 like lines cut -->
      </prescribe>
      <prescribe bc="y" lc="1">
         <node id="643">2.6190623e-01</node>
         <node id="644">2.6190623e-01</node>
         <node id="645">-2.6190623e-01</node>
         <node id="646">-2.6190623e-01</node>
         <node id="647">4.2377318e-01</node>
         <node id="648">-4.2377318e-01</node>
         <node id="649">-4.2377318e-01</node>
         <node id="650">4.2377318e-01</node>
         <node id="651">-3.8857806e-17</node>
         <node id="652">6.9388939e-19</node>
         <node id="653">0.0000000e+00</node>
         <node id="654">-3.7470027e-17</node>
         <node id="655">-4.1102507e-19</node>
         <node id="656">4.0295986e-01</node>
         <node id="657">4.0295986e-01</node>
         <node id="658">1.5391697e-01</node>
         <node id="659">1.5391697e-01</node>
         <node id="660">-1.1564823e-18</node>
         <node id="661">4.0295986e-01</node>
         <node id="662">4.0295986e-01</node>
<!-- ... 622 like lines cut -->
      </prescribe>
      <prescribe bc="z" lc="1">
         <node id="643">4.2377318e-01</node>
         <node id="644">-4.2377318e-01</node>
         <node id="645">-4.2377318e-01</node>
         <node id="646">4.2377318e-01</node>
         <node id="647">1.3877788e-18</node>
         <node id="648">-1.3877788e-18</node>
         <node id="649">-9.7144515e-18</node>
         <node id="650">1.0408341e-17</node>
         <node id="651">2.6190623e-01</node>
         <node id="652">2.6190623e-01</node>
         <node id="653">-2.6190623e-01</node>
         <node id="654">-2.6190623e-01</node>
         <node id="655">4.9808578e-01</node>
         <node id="656">2.4904289e-01</node>
         <node id="657">2.4904289e-01</node>
         <node id="658">4.0295986e-01</node>
         <node id="659">4.0295986e-01</node>
         <node id="660">-4.9808578e-01</node>
         <node id="661">-2.4904289e-01</node>
         <node id="662">-2.4904289e-01</node>
<!-- ... 622 like lines cut -->
      </prescribe>
   </Boundary>
   <Contact>
      <contact type="tied">
         <penalty>5.000000e+01</penalty>
         <tolerance>1.000000e-01</tolerance>
         <surface set="Contact_master" type="master"/>
         <surface set="Contact_slave" type="slave"/>
      </contact>
   </Contact>
   <LoadData>
      <loadcurve id="1" type="linear">
         <loadpoint>0.000000, 0.000000</loadpoint>
         <loadpoint>1.000000, 1.000000</loadpoint>
         <loadpoint>2.000000, -0.100000</loadpoint>
      </loadcurve>
   </LoadData>
   <Step name="Step_1">
      <Module type="solid"/>
      <Control>
         <time_steps>20.000000</time_steps>
         <step_size>0.050000</step_size>
         <max_refs>25.000000</max_refs>
         <max_ups>15.000000</max_ups>
         <dtol>0.001000</dtol>
         <etol>0.010000</etol>
         <rtol>0.000000</rtol>
         <lstol>0.900000</lstol>
         <analysis type="static"/>
         <time_stepper>
            <dtmin>0.000500</dtmin>
            <dtmax>0.050000</dtmax>
            <max_retries>5.000000</max_retries>
            <opt_iter>13.000000</opt_iter>
            <aggressiveness>1.000000</aggressiveness>
         </time_stepper>
      </Control>
   </Step>
   <Step name="Step_2">
      <Module type="solid"/>
      <Control>
         <time_steps>20.000000</time_steps>
         <step_size>0.050000</step_size>
         <max_refs>25.000000</max_refs>
         <max_ups>15.000000</max_ups>
         <dtol>0.001000</dtol>
         <etol>0.010000</etol>
         <rtol>0.000000</rtol>
         <lstol>0.900000</lstol>
         <analysis type="static"/>
         <time_stepper>
            <dtmin>0.000500</dtmin>
            <dtmax>0.050000</dtmax>
            <max_retries>5.000000</max_retries>
            <opt_iter>13.000000</opt_iter>
            <aggressiveness>1.000000</aggressiveness>
         </time_stepper>
      </Control>
   </Step>
   <Output>
      <plotfile type="febio">
         <var type="displacement"/>
         <var type="stress"/>
         <var type="relative volume"/>
         <var type="contact pressure"/>
         <var type="contact traction"/>
         <var type="contact force"/>
      </plotfile>
      <logfile>
         <node_data data="ux;uy;uz" delim=", " file="tempModel_node_out.txt"/>
      </logfile>
   </Output>
</febio_spec>
