<?xml version="1.0" encoding="utf-8"?>
<febio_spec version="2.0"><!--Created using GIBBON, 22-Feb-2016 14:21:41-->
   <Module type="solid"/>
   <Control>
      <time_steps>10.000000</time_steps>
      <step_size>0.100000</step_size>
      <max_refs>25.000000</max_refs>
      <max_ups>0.000000</max_ups>
      <dtol>0.001000</dtol>
      <etol>0.010000</etol>
      <rtol>0.000000</rtol>
      <lstol>0.900000</lstol>
      <analysis type="static"/>
      <time_stepper>
         <dtmin>0.001000</dtmin>
         <dtmax>0.100000</dtmax>
         <max_retries>5.000000</max_retries>
         <opt_iter>10.000000</opt_iter>
         <aggressiveness>1.000000</aggressiveness>
      </time_stepper>
   </Control>
   <Globals>
      <Constants>
         <T>0.0000000e+00</T>
         <R>0.0000000e+00</R>
         <Fc>0.0000000e+00</Fc>
      </Constants>
   </Globals>
   <Material>
      <material id="1" name="mat_1" type="Ogden">
         <c1>1.0000000e-03</c1>
         <m1>1.2000000e+01</m1>
         <k>1.0000000e+00</k>
      </material>
   </Material>
   <Geometry>
      <Nodes>
         <node id="1">-2.5000000e+00, -2.5000000e+00, -2.5000000e+00</node>
         <node id="2">-2.5000000e+00, -2.5000000e+00, -2.0833333e+00</node>
         <node id="3">-2.5000000e+00, -2.5000000e+00, -1.6666667e+00</node>
         <node id="4">-2.5000000e+00, -2.5000000e+00, -1.2500000e+00</node>
         <node id="5">-2.5000000e+00, -2.5000000e+00, -8.3333333e-01</node>
         <node id="6">-2.5000000e+00, -2.5000000e+00, -4.1666667e-01</node>
         <node id="7">-2.5000000e+00, -2.5000000e+00, 0.0000000e+00</node>
         <node id="8">-2.5000000e+00, -2.1153846e+00, -2.5000000e+00</node>
         <node id="9">-2.5000000e+00, -2.1153846e+00, -2.0833333e+00</node>
         <node id="10">-2.5000000e+00, -2.1153846e+00, -1.6666667e+00</node>
         <node id="11">-2.5000000e+00, -2.1153846e+00, -1.2500000e+00</node>
         <node id="12">-2.5000000e+00, -2.1153846e+00, -8.3333333e-01</node>
         <node id="13">-2.5000000e+00, -2.1153846e+00, -4.1666667e-01</node>
         <node id="14">-2.5000000e+00, -2.1153846e+00, 0.0000000e+00</node>
         <node id="15">-2.5000000e+00, -1.7307692e+00, -2.5000000e+00</node>
         <node id="16">-2.5000000e+00, -1.7307692e+00, -2.0833333e+00</node>
         <node id="17">-2.5000000e+00, -1.7307692e+00, -1.6666667e+00</node>
         <node id="18">-2.5000000e+00, -1.7307692e+00, -1.2500000e+00</node>
         <node id="19">-2.5000000e+00, -1.7307692e+00, -8.3333333e-01</node>
         <node id="20">-2.5000000e+00, -1.7307692e+00, -4.1666667e-01</node>
<!-- ... 2449 like lines cut -->
      </Nodes>
      <Elements mat="1" name="Tissue" type="tet4">
         <elem id="1">   72,   1452,   1641,   1686</elem>
         <elem id="2">   1841,   1724,   2262,   2324</elem>
         <elem id="3">   1076,   1122,   1281,   1843</elem>
         <elem id="4">   1312,   1424,   1901,   2154</elem>
         <elem id="5">   2056,   1897,   2389,   2420</elem>
         <elem id="6">   215,   178,   216,   859</elem>
         <elem id="7">   827,   1190,   1239,   1956</elem>
         <elem id="8">   577,   578,   997,   1015</elem>
         <elem id="9">   612,   618,   611,   1838</elem>
         <elem id="10">   272,   232,   270,   1860</elem>
         <elem id="11">   1294,   1665,   1145,   2191</elem>
         <elem id="12">   1333,   1026,   1454,   1552</elem>
         <elem id="13">   1031,   865,   1551,   1822</elem>
         <elem id="14">   1524,   1204,   1644,   2266</elem>
         <elem id="15">   1859,   1310,   2020,   2290</elem>
         <elem id="16">   705,   875,   347,   708</elem>
         <elem id="17">   1213,   1336,   1733,   2209</elem>
         <elem id="18">   823,   1403,   1897,   2168</elem>
         <elem id="19">   1898,   909,   2023,   2250</elem>
         <elem id="20">   989,   355,   1041,   1663</elem>
<!-- ... 13141 like lines cut -->
      </Elements>
      <Surface name="Pressure_surface">
         <tri3 id="1">   105,   7,   14</tri3>
         <tri3 id="2">   107,   14,   21</tri3>
         <tri3 id="3">   109,   21,   28</tri3>
         <tri3 id="4">   111,   28,   35</tri3>
         <tri3 id="5">   113,   35,   42</tri3>
         <tri3 id="6">   115,   42,   49</tri3>
         <tri3 id="7">   117,   49,   56</tri3>
         <tri3 id="8">   119,   56,   63</tri3>
         <tri3 id="9">   121,   63,   70</tri3>
         <tri3 id="10">   123,   70,   77</tri3>
         <tri3 id="11">   125,   77,   84</tri3>
         <tri3 id="12">   127,   84,   91</tri3>
         <tri3 id="13">   129,   91,   98</tri3>
         <tri3 id="14">   143,   105,   107</tri3>
         <tri3 id="15">   145,   107,   109</tri3>
         <tri3 id="16">   147,   109,   111</tri3>
         <tri3 id="17">   149,   111,   113</tri3>
         <tri3 id="18">   151,   113,   115</tri3>
         <tri3 id="19">   153,   115,   117</tri3>
         <tri3 id="20">   155,   117,   119</tri3>
<!-- ... 318 like lines cut -->
      </Surface>
      <NodeSet name="bcRigidListFull">
         <node id="1"/>
         <node id="8"/>
         <node id="15"/>
         <node id="22"/>
         <node id="29"/>
         <node id="36"/>
         <node id="43"/>
         <node id="50"/>
         <node id="57"/>
         <node id="64"/>
         <node id="71"/>
         <node id="78"/>
         <node id="85"/>
         <node id="92"/>
         <node id="99"/>
         <node id="106"/>
         <node id="108"/>
         <node id="110"/>
         <node id="112"/>
         <node id="114"/>
<!-- ... 338 like lines cut -->
      </NodeSet>
   </Geometry>
   <Boundary>
      <fix bc="x" set="bcRigidListFull"/>
      <fix bc="y" set="bcRigidListFull"/>
      <fix bc="z" set="bcRigidListFull"/>
   </Boundary>
   <Loads>
      <surface_load type="pressure">
         <pressure lc="1">-2.000000e-03</pressure>
         <surface set="Pressure_surface"/>
      </surface_load>
   </Loads>
   <LoadData>
      <loadcurve id="1" type="linear">
         <loadpoint>0.000000, 0.000000</loadpoint>
         <loadpoint>1.000000, 1.000000</loadpoint>
      </loadcurve>
   </LoadData>
   <Output>
      <plotfile type="febio">
         <var type="displacement"/>
         <var type="stress"/>
         <var type="relative volume"/>
      </plotfile>
      <logfile>
         <node_data data="ux;uy;uz" delim=", " file="tempModel_node_out.txt"/>
      </logfile>
   </Output>
</febio_spec>
