<?xml version="1.0" encoding="UTF-8"?>
<febio_spec version="2.0">
    <!--Created using GIBBON, 12-Dec-2017 14:48:39-->
    <Module type="solid"/>
    <Control>
        <time_steps>20.000000</time_steps>
        <step_size>0.050000</step_size>
        <max_refs>25.000000</max_refs>
        <max_ups>0.000000</max_ups>
        <dtol>0.001000</dtol>
        <etol>0.010000</etol>
        <rtol>0.000000</rtol>
        <lstol>0.900000</lstol>
        <analysis type="static"/>
        <time_stepper>
            <dtmin>0.000100</dtmin>
            <dtmax>0.050000</dtmax>
            <max_retries>5.000000</max_retries>
            <opt_iter>10.000000</opt_iter>
            <aggressiveness>1.000000</aggressiveness>
        </time_stepper>
    </Control>
    <Globals>
        <Constants>
            <T>0.0000000e+00</T>
            <R>0.0000000e+00</R>
            <Fc>0.0000000e+00</Fc>
        </Constants>
    </Globals>
    <Material>
        <material id="1" name="cube_mat" type="Mooney-Rivlin">
            <c1>1.0000000e-03</c1>
            <c2>0.0000000e+00</c2>
            <k>1.0000000e+00</k>
        </material>
    </Material>
    <Geometry>
        <Nodes>
            <node id="1">0.0000000e+00, 0.0000000e+00, 0.0000000e+00</node>
            <node id="2">0.0000000e+00, 0.0000000e+00, 2.6086957e-01</node>
            <node id="3">0.0000000e+00, 0.0000000e+00, 5.2173913e-01</node>
            <node id="4">0.0000000e+00, 0.0000000e+00, 7.8260870e-01</node>
            <node id="5">0.0000000e+00, 0.0000000e+00, 1.0434783e+00</node>
            <node id="6">0.0000000e+00, 0.0000000e+00, 1.3043478e+00</node>
            <node id="7">0.0000000e+00, 0.0000000e+00, 1.5652174e+00</node>
            <node id="8">0.0000000e+00, 0.0000000e+00, 1.6373562e+00</node>
            <node id="9">0.0000000e+00, 0.0000000e+00, 3.2724804e+00</node>
            <node id="10">0.0000000e+00, 0.0000000e+00, 3.3913043e+00</node>
            <node id="11">0.0000000e+00, 0.0000000e+00, 3.6521739e+00</node>
            <node id="12">0.0000000e+00, 0.0000000e+00, 3.9130435e+00</node>
            <node id="13">0.0000000e+00, 0.0000000e+00, 4.1739130e+00</node>
            <node id="14">0.0000000e+00, 0.0000000e+00, 4.4347826e+00</node>
            <node id="15">0.0000000e+00, 0.0000000e+00, 4.6956522e+00</node>
            <node id="16">0.0000000e+00, 0.0000000e+00, 4.9080435e+00</node>
            <node id="17">0.0000000e+00, 7.4674953e-02, 1.5652174e+00</node>
            <node id="18">0.0000000e+00, 1.5222570e-01, 3.1304348e+00</node>
            <node id="19">0.0000000e+00, 2.3598877e-01, 4.6956522e+00</node>
            <node id="20">0.0000000e+00, 2.6086957e-01, 0.0000000e+00</node>
<!-- ... 10113 like lines cut -->
        </Nodes>
        <Elements mat="1" name="Trabeculae" type="tet4">
            <elem id="1">   9314,   7680,   9483,   9460</elem>
            <elem id="2">   6987,   7120,   8119,   9030</elem>
            <elem id="3">   232,   248,   249,   7731</elem>
            <elem id="4">   648,   528,   827,   532</elem>
            <elem id="5">   2498,   2215,   8274,   8565</elem>
            <elem id="6">   7065,   6939,   8768,   10014</elem>
            <elem id="7">   8152,   7364,   9153,   9492</elem>
            <elem id="8">   7086,   4820,   7597,   9717</elem>
            <elem id="9">   4586,   4589,   4428,   7431</elem>
            <elem id="10">   7361,   3951,   7615,   10070</elem>
            <elem id="11">   4033,   4038,   3831,   9714</elem>
            <elem id="12">   6302,   6301,   6061,   9127</elem>
            <elem id="13">   4198,   4197,   4207,   8903</elem>
            <elem id="14">   6855,   7031,   8166,   8601</elem>
            <elem id="15">   6599,   6623,   7383,   8029</elem>
            <elem id="16">   7131,   7503,   7524,   9006</elem>
            <elem id="17">   1799,   1934,   1937,   9022</elem>
            <elem id="18">   6119,   6467,   6115,   6238</elem>
            <elem id="19">   1686,   1695,   7653,   8772</elem>
            <elem id="20">   4202,   3903,   3902,   3892</elem>
<!-- ... 41780 like lines cut -->
        </Elements>
        <NodeSet name="bcFixList">
            <node id="1"/>
            <node id="20"/>
            <node id="36"/>
            <node id="51"/>
            <node id="67"/>
            <node id="82"/>
            <node id="100"/>
            <node id="116"/>
            <node id="227"/>
            <node id="229"/>
            <node id="246"/>
            <node id="262"/>
            <node id="277"/>
            <node id="293"/>
            <node id="309"/>
            <node id="327"/>
            <node id="432"/>
            <node id="444"/>
            <node id="464"/>
            <node id="467"/>
<!-- ... 396 like lines cut -->
        </NodeSet>
        <NodeSet name="bcPrescribeList">
            <node id="655"/>
            <node id="658"/>
            <node id="659"/>
            <node id="665"/>
            <node id="671"/>
            <node id="682"/>
            <node id="719"/>
            <node id="726"/>
            <node id="776"/>
            <node id="778"/>
            <node id="793"/>
            <node id="802"/>
            <node id="803"/>
            <node id="861"/>
            <node id="864"/>
            <node id="866"/>
            <node id="878"/>
            <node id="888"/>
            <node id="891"/>
            <node id="976"/>
<!-- ... 428 like lines cut -->
        </NodeSet>
    </Geometry>
    <Boundary>
        <fix bc="x" set="bcFixList"/>
        <fix bc="y" set="bcFixList"/>
        <fix bc="z" set="bcFixList"/>
        <prescribe bc="x" lc="1" type="relative">
            <node id="655">0.0000000e+00</node>
            <node id="658">0.0000000e+00</node>
            <node id="659">0.0000000e+00</node>
            <node id="665">0.0000000e+00</node>
            <node id="671">0.0000000e+00</node>
            <node id="682">0.0000000e+00</node>
            <node id="719">0.0000000e+00</node>
            <node id="726">0.0000000e+00</node>
            <node id="776">0.0000000e+00</node>
            <node id="778">0.0000000e+00</node>
            <node id="793">0.0000000e+00</node>
            <node id="802">0.0000000e+00</node>
            <node id="803">0.0000000e+00</node>
            <node id="861">0.0000000e+00</node>
            <node id="864">0.0000000e+00</node>
            <node id="866">0.0000000e+00</node>
            <node id="878">0.0000000e+00</node>
            <node id="888">0.0000000e+00</node>
            <node id="891">0.0000000e+00</node>
            <node id="976">0.0000000e+00</node>
<!-- ... 428 like lines cut -->
        </prescribe>
        <prescribe bc="y" lc="1" type="relative">
            <node id="655">0.0000000e+00</node>
            <node id="658">0.0000000e+00</node>
            <node id="659">0.0000000e+00</node>
            <node id="665">0.0000000e+00</node>
            <node id="671">0.0000000e+00</node>
            <node id="682">0.0000000e+00</node>
            <node id="719">0.0000000e+00</node>
            <node id="726">0.0000000e+00</node>
            <node id="776">0.0000000e+00</node>
            <node id="778">0.0000000e+00</node>
            <node id="793">0.0000000e+00</node>
            <node id="802">0.0000000e+00</node>
            <node id="803">0.0000000e+00</node>
            <node id="861">0.0000000e+00</node>
            <node id="864">0.0000000e+00</node>
            <node id="866">0.0000000e+00</node>
            <node id="878">0.0000000e+00</node>
            <node id="888">0.0000000e+00</node>
            <node id="891">0.0000000e+00</node>
            <node id="976">0.0000000e+00</node>
<!-- ... 428 like lines cut -->
        </prescribe>
        <prescribe bc="z" lc="1" type="relative">
            <node id="655">-1.5000000e+00</node>
            <node id="658">-1.5000000e+00</node>
            <node id="659">-1.5000000e+00</node>
            <node id="665">-1.5000000e+00</node>
            <node id="671">-1.5000000e+00</node>
            <node id="682">-1.5000000e+00</node>
            <node id="719">-1.5000000e+00</node>
            <node id="726">-1.5000000e+00</node>
            <node id="776">-1.5000000e+00</node>
            <node id="778">-1.5000000e+00</node>
            <node id="793">-1.5000000e+00</node>
            <node id="802">-1.5000000e+00</node>
            <node id="803">-1.5000000e+00</node>
            <node id="861">-1.5000000e+00</node>
            <node id="864">-1.5000000e+00</node>
            <node id="866">-1.5000000e+00</node>
            <node id="878">-1.5000000e+00</node>
            <node id="888">-1.5000000e+00</node>
            <node id="891">-1.5000000e+00</node>
            <node id="976">-1.5000000e+00</node>
<!-- ... 428 like lines cut -->
        </prescribe>
    </Boundary>
    <LoadData>
        <loadcurve id="1" type="linear">
            <loadpoint>0.000000, 0.000000</loadpoint>
            <loadpoint>1.000000, 1.000000</loadpoint>
        </loadcurve>
    </LoadData>
    <Output>
        <plotfile type="febio">
            <var type="displacement"/>
            <var type="stress"/>
            <var type="relative volume"/>
        </plotfile>
        <logfile>
            <node_data data="ux;uy;uz" delim=", " file="tempModel_node_out.txt"/>
        </logfile>
    </Output>
</febio_spec>
