<?xml version="1.0" encoding="utf-8"?>
<febio_spec version="2.0"><!--Created using GIBBON, 15-Mar-2016 16:37:48-->
   <Module type="solid"/>
   <Control>
      <time_steps>20.000000</time_steps>
      <step_size>0.050000</step_size>
      <max_refs>25.000000</max_refs>
      <max_ups>0.000000</max_ups>
      <dtol>0.001000</dtol>
      <etol>0.010000</etol>
      <rtol>0.000000</rtol>
      <lstol>0.900000</lstol>
      <analysis type="static"/>
      <time_stepper>
         <dtmin>0.000100</dtmin>
         <dtmax>0.050000</dtmax>
         <max_retries>5.000000</max_retries>
         <opt_iter>10.000000</opt_iter>
         <aggressiveness>1.000000</aggressiveness>
      </time_stepper>
   </Control>
   <Globals>
      <Constants>
         <T>0.0000000e+00</T>
         <R>0.0000000e+00</R>
         <Fc>0.0000000e+00</Fc>
      </Constants>
   </Globals>
   <Material>
      <material id="1" name="cube_mat" type="Mooney-Rivlin">
         <c1>1.0000000e-03</c1>
         <c2>0.0000000e+00</c2>
         <k>1.0000000e+00</k>
      </material>
   </Material>
   <Geometry>
      <Nodes>
         <node id="1">-6.1261057e+00, -6.1261057e+00, -4.3586718e+00</node>
         <node id="2">-6.1261057e+00, -6.1261057e+00, -4.0840704e+00</node>
         <node id="3">-6.1261057e+00, -6.1261057e+00, -3.5735616e+00</node>
         <node id="4">-6.1261057e+00, -6.1261057e+00, -3.0630528e+00</node>
         <node id="5">-6.1261057e+00, -6.1261057e+00, -2.6939026e+00</node>
         <node id="6">-6.1261057e+00, -6.1261057e+00, 4.5311587e-01</node>
         <node id="7">-6.1261057e+00, -6.1261057e+00, 5.1050881e-01</node>
         <node id="8">-6.1261057e+00, -6.1261057e+00, 1.0210176e+00</node>
         <node id="9">-6.1261057e+00, -6.1261057e+00, 1.5315264e+00</node>
         <node id="10">-6.1261057e+00, -6.1261057e+00, 1.8079057e+00</node>
         <node id="11">-6.1261057e+00, -6.1261057e+00, 5.1362583e+00</node>
         <node id="12">-6.1261057e+00, -6.1261057e+00, 5.6155969e+00</node>
         <node id="13">-6.1261057e+00, -6.1261057e+00, 6.1261057e+00</node>
         <node id="14">-6.1261057e+00, -6.0830757e+00, 5.1050881e+00</node>
         <node id="15">-6.1261057e+00, -6.0333444e+00, -2.5525440e+00</node>
         <node id="16">-6.1261057e+00, -6.0130729e+00, 2.0420352e+00</node>
         <node id="17">-6.1261057e+00, -5.7434413e+00, 2.5525440e+00</node>
         <node id="18">-6.1261057e+00, -5.6232669e+00, -2.0420352e+00</node>
         <node id="19">-6.1261057e+00, -5.6155969e+00, -4.5555116e+00</node>
         <node id="20">-6.1261057e+00, -5.6155969e+00, -4.0840704e+00</node>
<!-- ... 8630 like lines cut -->
      </Nodes>
      <Elements mat="1" name="Trabeculae" type="tet4">
         <elem id="1">   1001,   1189,   6399,   7865</elem>
         <elem id="2">   7587,   6926,   8205,   8357</elem>
         <elem id="3">   2895,   3053,   2919,   3066</elem>
         <elem id="4">   755,   930,   6667,   7404</elem>
         <elem id="5">   3677,   3886,   3718,   7522</elem>
         <elem id="6">   1094,   842,   1088,   839</elem>
         <elem id="7">   5092,   4855,   5085,   6682</elem>
         <elem id="8">   6299,   7470,   7477,   7992</elem>
         <elem id="9">   4556,   4560,   4698,   7915</elem>
         <elem id="10">   3907,   4164,   3904,   7628</elem>
         <elem id="11">   5638,   5446,   7585,   8176</elem>
         <elem id="12">   4168,   4417,   7804,   8181</elem>
         <elem id="13">   6360,   2096,   8397,   8571</elem>
         <elem id="14">   7135,   2750,   7751,   8244</elem>
         <elem id="15">   5744,   5749,   6863,   7593</elem>
         <elem id="16">   489,   245,   484,   246</elem>
         <elem id="17">   1583,   1584,   1585,   7270</elem>
         <elem id="18">   4770,   5005,   4909,   7978</elem>
         <elem id="19">   5331,   5160,   5329,   8366</elem>
         <elem id="20">   2548,   8023,   8595,   8596</elem>
<!-- ... 33049 like lines cut -->
      </Elements>
      <NodeSet name="bcFixList">
         <node id="111"/>
         <node id="112"/>
         <node id="116"/>
         <node id="123"/>
         <node id="136"/>
         <node id="153"/>
         <node id="170"/>
         <node id="187"/>
         <node id="205"/>
         <node id="216"/>
         <node id="224"/>
         <node id="232"/>
         <node id="311"/>
         <node id="331"/>
         <node id="349"/>
         <node id="423"/>
         <node id="425"/>
         <node id="432"/>
         <node id="442"/>
         <node id="448"/>
<!-- ... 345 like lines cut -->
      </NodeSet>
      <NodeSet name="bcPrescribeList">
         <node id="13"/>
         <node id="36"/>
         <node id="60"/>
         <node id="80"/>
         <node id="96"/>
         <node id="101"/>
         <node id="151"/>
         <node id="168"/>
         <node id="184"/>
         <node id="186"/>
         <node id="317"/>
         <node id="351"/>
         <node id="375"/>
         <node id="384"/>
         <node id="390"/>
         <node id="398"/>
         <node id="408"/>
         <node id="409"/>
         <node id="441"/>
         <node id="447"/>
<!-- ... 310 like lines cut -->
      </NodeSet>
   </Geometry>
   <Boundary>
      <fix bc="x" set="bcFixList"/>
      <fix bc="y" set="bcFixList"/>
      <fix bc="z" set="bcFixList"/>
      <prescribe bc="x" lc="1" scale="0" set="bcPrescribeList" type="relative"/>
      <prescribe bc="y" lc="1" scale="0" set="bcPrescribeList" type="relative"/>
      <prescribe bc="z" lc="1" scale="-1.500000e+00" set="bcPrescribeList" type="relative"/>
   </Boundary>
   <LoadData>
      <loadcurve id="1" type="linear">
         <loadpoint>0.000000, 0.000000</loadpoint>
         <loadpoint>1.000000, 1.000000</loadpoint>
      </loadcurve>
   </LoadData>
   <Output>
      <plotfile type="febio">
         <var type="displacement"/>
         <var type="stress"/>
         <var type="relative volume"/>
      </plotfile>
      <logfile>
         <node_data data="ux;uy;uz" delim=", " file="tempModel_node_out.txt"/>
      </logfile>
   </Output>
</febio_spec>
