<?xml version="1.0" encoding="UTF-8"?>
<febio_spec version="2.0">
    <!--Created using GIBBON, 08-Nov-2017 11:39:30-->
    <Module type="solid"/>
    <Control>
        <time_steps>15.000000</time_steps>
        <step_size>0.066667</step_size>
        <max_refs>25.000000</max_refs>
        <max_ups>0.000000</max_ups>
        <dtol>0.001000</dtol>
        <etol>0.010000</etol>
        <rtol>0.000000</rtol>
        <lstol>0.900000</lstol>
        <analysis type="static"/>
        <time_stepper>
            <dtmin>0.000667</dtmin>
            <dtmax>0.066667</dtmax>
            <max_retries>5.000000</max_retries>
            <opt_iter>5.000000</opt_iter>
        </time_stepper>
    </Control>
    <Globals>
        <Constants>
            <T>0.0000000e+00</T>
            <R>0.0000000e+00</R>
            <Fc>0.0000000e+00</Fc>
        </Constants>
    </Globals>
    <Material>
        <material id="1" name="mat_1" type="Ogden">
            <c1>1.0000000e-03</c1>
            <c2>1.0000000e-03</c2>
            <m1>2.0000000e+00</m1>
            <m2>-2.0000000e+00</m2>
            <k>1.0000000e+00</k>
        </material>
    </Material>
    <Geometry>
        <Nodes>
            <node id="1">-1.8750000e+00, -1.8750000e+00, -3.1250000e+00</node>
            <node id="2">3.1250000e+00, -1.8750000e+00, -3.1250000e+00</node>
            <node id="3">3.1250000e+00, 3.1250000e+00, -3.1250000e+00</node>
            <node id="4">-1.8750000e+00, 3.1250000e+00, -3.1250000e+00</node>
            <node id="5">-1.8750000e+00, -1.8750000e+00, 1.8750000e+00</node>
            <node id="6">3.1250000e+00, -1.8750000e+00, 1.8750000e+00</node>
            <node id="7">3.1250000e+00, 3.1250000e+00, 1.8750000e+00</node>
            <node id="8">-1.8750000e+00, 3.1250000e+00, 1.8750000e+00</node>
            <node id="9">-1.8750000e+00, -3.1250000e+00, -3.1250000e+00</node>
            <node id="10">3.1250000e+00, -3.1250000e+00, -3.1250000e+00</node>
            <node id="11">3.1250000e+00, 1.8750000e+00, -3.1250000e+00</node>
            <node id="12">-1.8750000e+00, 1.8750000e+00, -3.1250000e+00</node>
            <node id="13">-1.8750000e+00, -3.1250000e+00, 1.8750000e+00</node>
            <node id="14">3.1250000e+00, -3.1250000e+00, 1.8750000e+00</node>
            <node id="15">3.1250000e+00, 1.8750000e+00, 1.8750000e+00</node>
            <node id="16">-1.8750000e+00, 1.8750000e+00, 1.8750000e+00</node>
            <node id="17">-3.1250000e+00, -3.1250000e+00, -3.1250000e+00</node>
            <node id="18">1.8750000e+00, -3.1250000e+00, -3.1250000e+00</node>
            <node id="19">1.8750000e+00, 1.8750000e+00, -3.1250000e+00</node>
            <node id="20">-3.1250000e+00, 1.8750000e+00, -3.1250000e+00</node>
<!-- ... 6812 like lines cut -->
        </Nodes>
        <Elements mat="1" name="Bar" type="hex8">
            <elem id="1">   379,   1106,   4264,   1114,   2211,   5815,   3553,   5823</elem>
            <elem id="2">   619,   1826,   4984,   1834,   2215,   6487,   3554,   6495</elem>
            <elem id="3">   672,   1998,   5156,   2006,   2219,   6655,   3555,   6663</elem>
            <elem id="4">   432,   1278,   4436,   1286,   2223,   5983,   3556,   5991</elem>
            <elem id="5">   391,   1145,   4310,   1160,   2227,   5852,   3557,   5868</elem>
            <elem id="6">   631,   1865,   5030,   1880,   2231,   6524,   3558,   6540</elem>
            <elem id="7">   684,   2037,   5202,   2052,   2235,   6692,   3559,   6708</elem>
            <elem id="8">   444,   1317,   4482,   1332,   2239,   6020,   3560,   6036</elem>
            <elem id="9">   359,   1112,   4261,   1049,   2242,   5824,   3561,   5761</elem>
            <elem id="10">   599,   1832,   4981,   1769,   2246,   6496,   3562,   6433</elem>
            <elem id="11">   648,   2004,   5153,   1923,   2250,   6664,   3563,   6579</elem>
            <elem id="12">   408,   1284,   4433,   1203,   2254,   5992,   3564,   5907</elem>
            <elem id="13">   369,   1158,   4303,   1076,   2258,   5869,   3565,   5786</elem>
            <elem id="14">   609,   1878,   5023,   1796,   2262,   6541,   3566,   6458</elem>
            <elem id="15">   660,   2050,   5195,   1959,   2266,   6709,   3567,   6615</elem>
            <elem id="16">   420,   1330,   4475,   1239,   2270,   6037,   3568,   5943</elem>
            <elem id="17">   260,   1046,   4254,   800,   2273,   5762,   3569,   5546</elem>
            <elem id="18">   500,   1766,   4974,   1493,   2277,   6434,   3570,   6178</elem>
            <elem id="19">   563,   1920,   5146,   1669,   2281,   6580,   3571,   6346</elem>
            <elem id="20">   323,   1200,   4426,   955,   2285,   5908,   3572,   5682</elem>
<!-- ... 3564 like lines cut -->
        </Elements>
        <NodeSet name="bcRigidList">
            <node id="230"/>
            <node id="233"/>
            <node id="286"/>
            <node id="288"/>
            <node id="291"/>
            <node id="346"/>
            <node id="382"/>
            <node id="435"/>
            <node id="470"/>
            <node id="473"/>
            <node id="526"/>
            <node id="528"/>
            <node id="531"/>
            <node id="586"/>
            <node id="622"/>
            <node id="675"/>
            <node id="728"/>
            <node id="734"/>
            <node id="736"/>
            <node id="738"/>
<!-- ... 92 like lines cut -->
        </NodeSet>
        <NodeSet name="bcPrescribeList">
            <node id="251"/>
            <node id="254"/>
            <node id="312"/>
            <node id="314"/>
            <node id="317"/>
            <node id="355"/>
            <node id="404"/>
            <node id="457"/>
            <node id="491"/>
            <node id="494"/>
            <node id="552"/>
            <node id="554"/>
            <node id="557"/>
            <node id="595"/>
            <node id="644"/>
            <node id="697"/>
            <node id="774"/>
            <node id="780"/>
            <node id="782"/>
            <node id="784"/>
<!-- ... 92 like lines cut -->
        </NodeSet>
    </Geometry>
    <Boundary>
        <fix bc="x" set="bcRigidList"/>
        <fix bc="y" set="bcRigidList"/>
        <fix bc="z" set="bcRigidList"/>
        <prescribe bc="x" lc="1" type="relative">
            <node id="251">0.0000000e+00</node>
            <node id="254">0.0000000e+00</node>
            <node id="312">0.0000000e+00</node>
            <node id="314">0.0000000e+00</node>
            <node id="317">0.0000000e+00</node>
            <node id="355">0.0000000e+00</node>
            <node id="404">0.0000000e+00</node>
            <node id="457">0.0000000e+00</node>
            <node id="491">0.0000000e+00</node>
            <node id="494">0.0000000e+00</node>
            <node id="552">0.0000000e+00</node>
            <node id="554">0.0000000e+00</node>
            <node id="557">0.0000000e+00</node>
            <node id="595">0.0000000e+00</node>
            <node id="644">0.0000000e+00</node>
            <node id="697">0.0000000e+00</node>
            <node id="774">0.0000000e+00</node>
            <node id="780">0.0000000e+00</node>
            <node id="782">0.0000000e+00</node>
            <node id="784">0.0000000e+00</node>
<!-- ... 92 like lines cut -->
        </prescribe>
        <prescribe bc="y" lc="1" type="relative">
            <node id="251">0.0000000e+00</node>
            <node id="254">0.0000000e+00</node>
            <node id="312">0.0000000e+00</node>
            <node id="314">0.0000000e+00</node>
            <node id="317">0.0000000e+00</node>
            <node id="355">0.0000000e+00</node>
            <node id="404">0.0000000e+00</node>
            <node id="457">0.0000000e+00</node>
            <node id="491">0.0000000e+00</node>
            <node id="494">0.0000000e+00</node>
            <node id="552">0.0000000e+00</node>
            <node id="554">0.0000000e+00</node>
            <node id="557">0.0000000e+00</node>
            <node id="595">0.0000000e+00</node>
            <node id="644">0.0000000e+00</node>
            <node id="697">0.0000000e+00</node>
            <node id="774">0.0000000e+00</node>
            <node id="780">0.0000000e+00</node>
            <node id="782">0.0000000e+00</node>
            <node id="784">0.0000000e+00</node>
<!-- ... 92 like lines cut -->
        </prescribe>
        <prescribe bc="z" lc="1" type="relative">
            <node id="251">-2.0000000e+00</node>
            <node id="254">-2.0000000e+00</node>
            <node id="312">-2.0000000e+00</node>
            <node id="314">-2.0000000e+00</node>
            <node id="317">-2.0000000e+00</node>
            <node id="355">-2.0000000e+00</node>
            <node id="404">-2.0000000e+00</node>
            <node id="457">-2.0000000e+00</node>
            <node id="491">-2.0000000e+00</node>
            <node id="494">-2.0000000e+00</node>
            <node id="552">-2.0000000e+00</node>
            <node id="554">-2.0000000e+00</node>
            <node id="557">-2.0000000e+00</node>
            <node id="595">-2.0000000e+00</node>
            <node id="644">-2.0000000e+00</node>
            <node id="697">-2.0000000e+00</node>
            <node id="774">-2.0000000e+00</node>
            <node id="780">-2.0000000e+00</node>
            <node id="782">-2.0000000e+00</node>
            <node id="784">-2.0000000e+00</node>
<!-- ... 92 like lines cut -->
        </prescribe>
    </Boundary>
    <LoadData>
        <loadcurve id="1" type="linear">
            <loadpoint>0.000000, 0.000000</loadpoint>
            <loadpoint>1.000000, 1.000000</loadpoint>
        </loadcurve>
    </LoadData>
    <Output>
        <plotfile type="febio">
            <var type="displacement"/>
            <var type="stress"/>
            <var type="relative volume"/>
        </plotfile>
        <logfile>
            <node_data data="ux;uy;uz" delim=", " file="tempModel_node_out.txt"/>
            <node_data data="Rx;Ry;Rz" delim=", " file="tempModel_force_out.txt"/>
        </logfile>
    </Output>
</febio_spec>
