<?xml version="1.0" encoding="utf-8"?>
<!-- 
Created using GIBBON, 12-Oct-2014 23:02:39
-->
<febio_spec version="2.0">
   <Module type="solid"/>
   <Control>
      <time_steps>10.000000</time_steps>
      <step_size>0.100000</step_size>
      <max_refs>15.000000</max_refs>
      <max_ups>0.000000</max_ups>
      <dtol>0.001000</dtol>
      <etol>0.010000</etol>
      <rtol>0.000000</rtol>
      <lstol>0.900000</lstol>
      <analysis type="static"/>
      <time_stepper>
         <dtmin>0.000010</dtmin>
         <dtmax>0.100000</dtmax>
         <max_retries>10.000000</max_retries>
         <opt_iter>10.000000</opt_iter>
         <aggressiveness>1.000000</aggressiveness>
      </time_stepper>
   </Control>
   <Globals>
      <Constants>
         <T>0.0000000e+00</T>
         <R>0.0000000e+00</R>
         <Fc>0.0000000e+00</Fc>
      </Constants>
   </Globals>
   <Material>
      <material id="1" name="cube_mat_1" type="Mooney-Rivlin">
         <c1>1.0000000e-05</c1>
         <c2>0.0000000e+00</c2>
         <k>1.0000000e-02</k>
      </material>
      <material id="2" name="cube_mat_2" type="Mooney-Rivlin">
         <c1>8.0714286e-05</c1>
         <c2>0.0000000e+00</c2>
         <k>8.0714286e-02</k>
      </material>
      <material id="3" name="cube_mat_3" type="Mooney-Rivlin">
         <c1>1.5142857e-04</c1>
         <c2>0.0000000e+00</c2>
         <k>1.5142857e-01</k>
      </material>
      <material id="4" name="cube_mat_4" type="Mooney-Rivlin">
         <c1>2.2214286e-04</c1>
         <c2>0.0000000e+00</c2>
         <k>2.2214286e-01</k>
      </material>
      <material id="5" name="cube_mat_5" type="Mooney-Rivlin">
         <c1>2.9285714e-04</c1>
         <c2>0.0000000e+00</c2>
         <k>2.9285714e-01</k>
      </material>
      <material id="6" name="cube_mat_6" type="Mooney-Rivlin">
         <c1>3.6357143e-04</c1>
         <c2>0.0000000e+00</c2>
         <k>3.6357143e-01</k>
      </material>
      <material id="7" name="cube_mat_7" type="Mooney-Rivlin">
         <c1>4.3428571e-04</c1>
         <c2>0.0000000e+00</c2>
         <k>4.3428571e-01</k>
      </material>
      <material id="8" name="cube_mat_8" type="Mooney-Rivlin">
         <c1>5.0500000e-04</c1>
         <c2>0.0000000e+00</c2>
         <k>5.0500000e-01</k>
      </material>
      <material id="9" name="cube_mat_9" type="Mooney-Rivlin">
         <c1>5.7571429e-04</c1>
         <c2>0.0000000e+00</c2>
         <k>5.7571429e-01</k>
      </material>
      <material id="10" name="cube_mat_10" type="Mooney-Rivlin">
         <c1>6.4642857e-04</c1>
         <c2>0.0000000e+00</c2>
         <k>6.4642857e-01</k>
      </material>
      <material id="11" name="cube_mat_11" type="Mooney-Rivlin">
         <c1>7.1714286e-04</c1>
         <c2>0.0000000e+00</c2>
         <k>7.1714286e-01</k>
      </material>
      <material id="12" name="cube_mat_12" type="Mooney-Rivlin">
         <c1>7.8785714e-04</c1>
         <c2>0.0000000e+00</c2>
         <k>7.8785714e-01</k>
      </material>
      <material id="13" name="cube_mat_13" type="Mooney-Rivlin">
         <c1>8.5857143e-04</c1>
         <c2>0.0000000e+00</c2>
         <k>8.5857143e-01</k>
      </material>
      <material id="14" name="cube_mat_14" type="Mooney-Rivlin">
         <c1>9.2928571e-04</c1>
         <c2>0.0000000e+00</c2>
         <k>9.2928571e-01</k>
      </material>
      <material id="15" name="cube_mat_15" type="Mooney-Rivlin">
         <c1>1.0000000e-03</c1>
         <c2>0.0000000e+00</c2>
         <k>1.0000000e+00</k>
      </material>
   </Material>
   <Geometry>
      <Nodes>
         <node id="1">5.0000000e-01, 5.0000000e-01, 5.0000000e-01</node>
         <node id="2">5.0000000e-01, 5.0000000e-01, 1.5000000e+00</node>
         <node id="3">5.0000000e-01, 5.0000000e-01, 2.5000000e+00</node>
         <node id="4">5.0000000e-01, 5.0000000e-01, 3.5000000e+00</node>
         <node id="5">5.0000000e-01, 5.0000000e-01, 4.5000000e+00</node>
         <node id="6">5.0000000e-01, 5.0000000e-01, 5.5000000e+00</node>
         <node id="7">5.0000000e-01, 5.0000000e-01, 6.5000000e+00</node>
         <node id="8">5.0000000e-01, 5.0000000e-01, 7.5000000e+00</node>
         <node id="9">5.0000000e-01, 5.0000000e-01, 8.5000000e+00</node>
         <node id="10">5.0000000e-01, 5.0000000e-01, 9.5000000e+00</node>
         <node id="11">5.0000000e-01, 5.0000000e-01, 1.0500000e+01</node>
         <node id="12">5.0000000e-01, 5.0000000e-01, 1.1500000e+01</node>
         <node id="13">5.0000000e-01, 5.0000000e-01, 1.2500000e+01</node>
         <node id="14">5.0000000e-01, 5.0000000e-01, 1.3500000e+01</node>
         <node id="15">5.0000000e-01, 5.0000000e-01, 1.4500000e+01</node>
         <node id="16">5.0000000e-01, 5.0000000e-01, 1.5500000e+01</node>
         <node id="17">5.0000000e-01, 5.0000000e-01, 1.6500000e+01</node>
         <node id="18">5.0000000e-01, 5.0000000e-01, 1.7500000e+01</node>
         <node id="19">5.0000000e-01, 5.0000000e-01, 1.8500000e+01</node>
         <node id="20">5.0000000e-01, 5.0000000e-01, 1.9500000e+01</node>
<!-- ... 9241 like lines cut -->
      </Nodes>
      <Elements mat="1" name="Block_1" type="hex8">
         <elem id="4">   65,   86,   527,   506,   64,   85,   526,   505</elem>
         <elem id="25">   527,   548,   989,   968,   526,   547,   988,   967</elem>
         <elem id="93">   2018,   2039,   2480,   2459,   2017,   2038,   2479,   2458</elem>
         <elem id="113">   2459,   2480,   2921,   2900,   2458,   2479,   2920,   2899</elem>
         <elem id="152">   3320,   3341,   3782,   3761,   3319,   3340,   3781,   3760</elem>
         <elem id="171">   3740,   3761,   4202,   4181,   3739,   3760,   4201,   4180</elem>
         <elem id="172">   3761,   3782,   4223,   4202,   3760,   3781,   4222,   4201</elem>
         <elem id="173">   3782,   3803,   4244,   4223,   3781,   3802,   4243,   4222</elem>
         <elem id="189">   4139,   4160,   4601,   4580,   4138,   4159,   4600,   4579</elem>
         <elem id="193">   4223,   4244,   4685,   4664,   4222,   4243,   4684,   4663</elem>
         <elem id="214">   4685,   4706,   5147,   5126,   4684,   4705,   5146,   5125</elem>
         <elem id="215">   4706,   4727,   5168,   5147,   4705,   4726,   5167,   5146</elem>
         <elem id="283">   6218,   6239,   6680,   6659,   6217,   6238,   6679,   6658</elem>
         <elem id="379">   8318,   8339,   8780,   8759,   8317,   8338,   8779,   8758</elem>
         <elem id="398">   8738,   8759,   9200,   9179,   8737,   8758,   9199,   9178</elem>
         <elem id="425">   528,   549,   990,   969,   527,   548,   989,   968</elem>
         <elem id="438">   801,   822,   1263,   1242,   800,   821,   1262,   1241</elem>
         <elem id="458">   1242,   1263,   1704,   1683,   1241,   1262,   1703,   1682</elem>
         <elem id="500">   2166,   2187,   2628,   2607,   2165,   2186,   2627,   2606</elem>
         <elem id="589">   4140,   4161,   4602,   4581,   4139,   4160,   4601,   4580</elem>
<!-- ... 196 like lines cut -->
      </Elements>
      <Elements mat="2" name="Block_2" type="hex8">
         <elem id="5">   86,   107,   548,   527,   85,   106,   547,   526</elem>
         <elem id="26">   548,   569,   1010,   989,   547,   568,   1009,   988</elem>
         <elem id="94">   2039,   2060,   2501,   2480,   2038,   2059,   2500,   2479</elem>
         <elem id="132">   2879,   2900,   3341,   3320,   2878,   2899,   3340,   3319</elem>
         <elem id="133">   2900,   2921,   3362,   3341,   2899,   2920,   3361,   3340</elem>
         <elem id="153">   3341,   3362,   3803,   3782,   3340,   3361,   3802,   3781</elem>
         <elem id="169">   3698,   3719,   4160,   4139,   3697,   3718,   4159,   4138</elem>
         <elem id="170">   3719,   3740,   4181,   4160,   3718,   3739,   4180,   4159</elem>
         <elem id="188">   4118,   4139,   4580,   4559,   4117,   4138,   4579,   4558</elem>
         <elem id="190">   4160,   4181,   4622,   4601,   4159,   4180,   4621,   4600</elem>
         <elem id="191">   4181,   4202,   4643,   4622,   4180,   4201,   4642,   4621</elem>
         <elem id="192">   4202,   4223,   4664,   4643,   4201,   4222,   4663,   4642</elem>
         <elem id="194">   4244,   4265,   4706,   4685,   4243,   4264,   4705,   4684</elem>
         <elem id="208">   4559,   4580,   5021,   5000,   4558,   4579,   5020,   4999</elem>
         <elem id="235">   5147,   5168,   5609,   5588,   5146,   5167,   5608,   5587</elem>
         <elem id="282">   6197,   6218,   6659,   6638,   6196,   6217,   6658,   6637</elem>
         <elem id="284">   6239,   6260,   6701,   6680,   6238,   6259,   6700,   6679</elem>
         <elem id="303">   6659,   6680,   7121,   7100,   6658,   6679,   7120,   7099</elem>
         <elem id="329">   7226,   7247,   7688,   7667,   7225,   7246,   7687,   7666</elem>
         <elem id="349">   7667,   7688,   8129,   8108,   7666,   7687,   8128,   8107</elem>
<!-- ... 648 like lines cut -->
      </Elements>
      <Elements mat="3" name="Block_3" type="hex8">
         <elem id="1">   2,   23,   464,   443,   1,   22,   463,   442</elem>
         <elem id="3">   44,   65,   506,   485,   43,   64,   505,   484</elem>
         <elem id="18">   359,   380,   821,   800,   358,   379,   820,   799</elem>
         <elem id="19">   380,   401,   842,   821,   379,   400,   841,   820</elem>
         <elem id="24">   506,   527,   968,   947,   505,   526,   967,   946</elem>
         <elem id="45">   968,   989,   1430,   1409,   967,   988,   1429,   1408</elem>
         <elem id="46">   989,   1010,   1451,   1430,   988,   1009,   1450,   1429</elem>
         <elem id="73">   1577,   1598,   2039,   2018,   1576,   1597,   2038,   2017</elem>
         <elem id="74">   1598,   1619,   2060,   2039,   1597,   1618,   2059,   2038</elem>
         <elem id="100">   2165,   2186,   2627,   2606,   2164,   2185,   2626,   2605</elem>
         <elem id="112">   2438,   2459,   2900,   2879,   2437,   2458,   2899,   2878</elem>
         <elem id="114">   2480,   2501,   2942,   2921,   2479,   2500,   2941,   2920</elem>
         <elem id="120">   2606,   2627,   3068,   3047,   2605,   2626,   3067,   3046</elem>
         <elem id="151">   3299,   3320,   3761,   3740,   3298,   3319,   3760,   3739</elem>
         <elem id="174">   3803,   3824,   4265,   4244,   3802,   3823,   4264,   4243</elem>
         <elem id="209">   4580,   4601,   5042,   5021,   4579,   4600,   5041,   5020</elem>
         <elem id="213">   4664,   4685,   5126,   5105,   4663,   4684,   5125,   5104</elem>
         <elem id="234">   5126,   5147,   5588,   5567,   5125,   5146,   5587,   5566</elem>
         <elem id="236">   5168,   5189,   5630,   5609,   5167,   5188,   5629,   5608</elem>
         <elem id="285">   6260,   6281,   6722,   6701,   6259,   6280,   6721,   6700</elem>
<!-- ... 574 like lines cut -->
      </Elements>
      <Elements mat="4" name="Block_4" type="hex8">
         <elem id="2">   23,   44,   485,   464,   22,   43,   484,   463</elem>
         <elem id="6">   107,   128,   569,   548,   106,   127,   568,   547</elem>
         <elem id="38">   800,   821,   1262,   1241,   799,   820,   1261,   1240</elem>
         <elem id="75">   1619,   1640,   2081,   2060,   1618,   1639,   2080,   2059</elem>
         <elem id="92">   1997,   2018,   2459,   2438,   1996,   2017,   2458,   2437</elem>
         <elem id="95">   2060,   2081,   2522,   2501,   2059,   2080,   2521,   2500</elem>
         <elem id="134">   2921,   2942,   3383,   3362,   2920,   2941,   3382,   3361</elem>
         <elem id="141">   3089,   3110,   3551,   3530,   3088,   3109,   3550,   3529</elem>
         <elem id="150">   3278,   3299,   3740,   3719,   3277,   3298,   3739,   3718</elem>
         <elem id="154">   3362,   3383,   3824,   3803,   3361,   3382,   3823,   3802</elem>
         <elem id="168">   3677,   3698,   4139,   4118,   3676,   3697,   4138,   4117</elem>
         <elem id="187">   4097,   4118,   4559,   4538,   4096,   4117,   4558,   4537</elem>
         <elem id="195">   4265,   4286,   4727,   4706,   4264,   4285,   4726,   4705</elem>
         <elem id="207">   4538,   4559,   5000,   4979,   4537,   4558,   4999,   4978</elem>
         <elem id="216">   4727,   4748,   5189,   5168,   4726,   4747,   5188,   5167</elem>
         <elem id="228">   5000,   5021,   5462,   5441,   4999,   5020,   5461,   5440</elem>
         <elem id="255">   5588,   5609,   6050,   6029,   5587,   5608,   6049,   6028</elem>
         <elem id="262">   5756,   5777,   6218,   6197,   5755,   5776,   6217,   6196</elem>
         <elem id="263">   5777,   5798,   6239,   6218,   5776,   5797,   6238,   6217</elem>
         <elem id="264">   5798,   5819,   6260,   6239,   5797,   5818,   6259,   6238</elem>
<!-- ... 557 like lines cut -->
      </Elements>
      <Elements mat="5" name="Block_5" type="hex8">
         <elem id="17">   338,   359,   800,   779,   337,   358,   799,   778</elem>
         <elem id="23">   485,   506,   947,   926,   484,   505,   946,   925</elem>
         <elem id="27">   569,   590,   1031,   1010,   568,   589,   1030,   1009</elem>
         <elem id="37">   779,   800,   1241,   1220,   778,   799,   1240,   1219</elem>
         <elem id="39">   821,   842,   1283,   1262,   820,   841,   1282,   1261</elem>
         <elem id="57">   1220,   1241,   1682,   1661,   1219,   1240,   1681,   1660</elem>
         <elem id="58">   1241,   1262,   1703,   1682,   1240,   1261,   1702,   1681</elem>
         <elem id="59">   1262,   1283,   1724,   1703,   1261,   1282,   1723,   1702</elem>
         <elem id="78">   1682,   1703,   2144,   2123,   1681,   1702,   2143,   2122</elem>
         <elem id="79">   1703,   1724,   2165,   2144,   1702,   1723,   2164,   2143</elem>
         <elem id="80">   1724,   1745,   2186,   2165,   1723,   1744,   2185,   2164</elem>
         <elem id="99">   2144,   2165,   2606,   2585,   2143,   2164,   2605,   2584</elem>
         <elem id="131">   2858,   2879,   3320,   3299,   2857,   2878,   3319,   3298</elem>
         <elem id="140">   3047,   3068,   3509,   3488,   3046,   3067,   3508,   3487</elem>
         <elem id="161">   3530,   3551,   3992,   3971,   3529,   3550,   3991,   3970</elem>
         <elem id="210">   4601,   4622,   5063,   5042,   4600,   4621,   5062,   5041</elem>
         <elem id="212">   4643,   4664,   5105,   5084,   4642,   4663,   5104,   5083</elem>
         <elem id="227">   4979,   5000,   5441,   5420,   4978,   4999,   5440,   5419</elem>
         <elem id="247">   5420,   5441,   5882,   5861,   5419,   5440,   5881,   5860</elem>
         <elem id="261">   5735,   5756,   6197,   6176,   5734,   5755,   6196,   6175</elem>
<!-- ... 548 like lines cut -->
      </Elements>
      <Elements mat="6" name="Block_6" type="hex8">
         <elem id="44">   947,   968,   1409,   1388,   946,   967,   1408,   1387</elem>
         <elem id="47">   1010,   1031,   1472,   1451,   1009,   1030,   1471,   1450</elem>
         <elem id="56">   1199,   1220,   1661,   1640,   1198,   1219,   1660,   1639</elem>
         <elem id="72">   1556,   1577,   2018,   1997,   1555,   1576,   2017,   1996</elem>
         <elem id="76">   1640,   1661,   2102,   2081,   1639,   1660,   2101,   2080</elem>
         <elem id="77">   1661,   1682,   2123,   2102,   1660,   1681,   2122,   2101</elem>
         <elem id="115">   2501,   2522,   2963,   2942,   2500,   2521,   2962,   2941</elem>
         <elem id="119">   2585,   2606,   3047,   3026,   2584,   2605,   3046,   3025</elem>
         <elem id="121">   2648,   2669,   3110,   3089,   2647,   2668,   3109,   3088</elem>
         <elem id="149">   3257,   3278,   3719,   3698,   3256,   3277,   3718,   3697</elem>
         <elem id="167">   3656,   3677,   4118,   4097,   3655,   3676,   4117,   4096</elem>
         <elem id="181">   3971,   3992,   4433,   4412,   3970,   3991,   4432,   4411</elem>
         <elem id="211">   4622,   4643,   5084,   5063,   4621,   4642,   5083,   5062</elem>
         <elem id="229">   5021,   5042,   5483,   5462,   5020,   5041,   5482,   5461</elem>
         <elem id="233">   5105,   5126,   5567,   5546,   5104,   5125,   5566,   5545</elem>
         <elem id="246">   5399,   5420,   5861,   5840,   5398,   5419,   5860,   5839</elem>
         <elem id="248">   5441,   5462,   5903,   5882,   5440,   5461,   5902,   5881</elem>
         <elem id="254">   5567,   5588,   6029,   6008,   5566,   5587,   6028,   6007</elem>
         <elem id="256">   5609,   5630,   6071,   6050,   5608,   5629,   6070,   6049</elem>
         <elem id="301">   6617,   6638,   7079,   7058,   6616,   6637,   7078,   7057</elem>
<!-- ... 543 like lines cut -->
      </Elements>
      <Elements mat="7" name="Block_7" type="hex8">
         <elem id="7">   128,   149,   590,   569,   127,   148,   589,   568</elem>
         <elem id="20">   401,   422,   863,   842,   400,   421,   862,   841</elem>
         <elem id="21">   443,   464,   905,   884,   442,   463,   904,   883</elem>
         <elem id="22">   464,   485,   926,   905,   463,   484,   925,   904</elem>
         <elem id="53">   1136,   1157,   1598,   1577,   1135,   1156,   1597,   1576</elem>
         <elem id="54">   1157,   1178,   1619,   1598,   1156,   1177,   1618,   1597</elem>
         <elem id="55">   1178,   1199,   1640,   1619,   1177,   1198,   1639,   1618</elem>
         <elem id="60">   1283,   1304,   1745,   1724,   1282,   1303,   1744,   1723</elem>
         <elem id="65">   1409,   1430,   1871,   1850,   1408,   1429,   1870,   1849</elem>
         <elem id="66">   1430,   1451,   1892,   1871,   1429,   1450,   1891,   1870</elem>
         <elem id="96">   2081,   2102,   2543,   2522,   2080,   2101,   2542,   2521</elem>
         <elem id="98">   2123,   2144,   2585,   2564,   2122,   2143,   2584,   2563</elem>
         <elem id="111">   2417,   2438,   2879,   2858,   2416,   2437,   2878,   2857</elem>
         <elem id="175">   3824,   3845,   4286,   4265,   3823,   3844,   4285,   4264</elem>
         <elem id="196">   4286,   4307,   4748,   4727,   4285,   4306,   4747,   4726</elem>
         <elem id="226">   4958,   4979,   5420,   5399,   4957,   4978,   5419,   5398</elem>
         <elem id="237">   5189,   5210,   5651,   5630,   5188,   5209,   5650,   5629</elem>
         <elem id="241">   5294,   5315,   5756,   5735,   5293,   5314,   5755,   5734</elem>
         <elem id="242">   5315,   5336,   5777,   5756,   5314,   5335,   5776,   5755</elem>
         <elem id="245">   5378,   5399,   5840,   5819,   5377,   5398,   5839,   5818</elem>
<!-- ... 523 like lines cut -->
      </Elements>
      <Elements mat="8" name="Block_8" type="hex8">
         <elem id="36">   758,   779,   1220,   1199,   757,   778,   1219,   1198</elem>
         <elem id="40">   842,   863,   1304,   1283,   841,   862,   1303,   1282</elem>
         <elem id="91">   1976,   1997,   2438,   2417,   1975,   1996,   2437,   2416</elem>
         <elem id="97">   2102,   2123,   2564,   2543,   2101,   2122,   2563,   2542</elem>
         <elem id="130">   2837,   2858,   3299,   3278,   2836,   2857,   3298,   3277</elem>
         <elem id="135">   2942,   2963,   3404,   3383,   2941,   2962,   3403,   3382</elem>
         <elem id="139">   3026,   3047,   3488,   3467,   3025,   3046,   3487,   3466</elem>
         <elem id="142">   3110,   3131,   3572,   3551,   3109,   3130,   3571,   3550</elem>
         <elem id="148">   3236,   3257,   3698,   3677,   3235,   3256,   3697,   3676</elem>
         <elem id="160">   3488,   3509,   3950,   3929,   3487,   3508,   3949,   3928</elem>
         <elem id="186">   4076,   4097,   4538,   4517,   4075,   4096,   4537,   4516</elem>
         <elem id="201">   4412,   4433,   4874,   4853,   4411,   4432,   4873,   4852</elem>
         <elem id="206">   4517,   4538,   4979,   4958,   4516,   4537,   4978,   4957</elem>
         <elem id="217">   4748,   4769,   5210,   5189,   4747,   4768,   5209,   5188</elem>
         <elem id="221">   4853,   4874,   5315,   5294,   4852,   4873,   5314,   5293</elem>
         <elem id="243">   5336,   5357,   5798,   5777,   5335,   5356,   5797,   5776</elem>
         <elem id="244">   5357,   5378,   5819,   5798,   5356,   5377,   5818,   5797</elem>
         <elem id="275">   6029,   6050,   6491,   6470,   6028,   6049,   6490,   6469</elem>
         <elem id="320">   7016,   7037,   7478,   7457,   7015,   7036,   7477,   7456</elem>
         <elem id="321">   7058,   7079,   7520,   7499,   7057,   7078,   7519,   7498</elem>
<!-- ... 522 like lines cut -->
      </Elements>
      <Elements mat="9" name="Block_9" type="hex8">
         <elem id="16">   317,   338,   779,   758,   316,   337,   778,   757</elem>
         <elem id="28">   590,   611,   1052,   1031,   589,   610,   1051,   1030</elem>
         <elem id="43">   926,   947,   1388,   1367,   925,   946,   1387,   1366</elem>
         <elem id="52">   1115,   1136,   1577,   1556,   1114,   1135,   1576,   1555</elem>
         <elem id="64">   1388,   1409,   1850,   1829,   1387,   1408,   1849,   1828</elem>
         <elem id="67">   1451,   1472,   1913,   1892,   1450,   1471,   1912,   1891</elem>
         <elem id="118">   2564,   2585,   3026,   3005,   2563,   2584,   3025,   3004</elem>
         <elem id="147">   3215,   3236,   3677,   3656,   3214,   3235,   3676,   3655</elem>
         <elem id="155">   3383,   3404,   3845,   3824,   3382,   3403,   3844,   3823</elem>
         <elem id="162">   3551,   3572,   4013,   3992,   3550,   3571,   4012,   3991</elem>
         <elem id="230">   5042,   5063,   5504,   5483,   5041,   5062,   5503,   5482</elem>
         <elem id="232">   5084,   5105,   5546,   5525,   5083,   5104,   5545,   5524</elem>
         <elem id="249">   5462,   5483,   5924,   5903,   5461,   5482,   5923,   5902</elem>
         <elem id="253">   5546,   5567,   6008,   5987,   5545,   5566,   6007,   5986</elem>
         <elem id="257">   5630,   5651,   6092,   6071,   5629,   5650,   6091,   6070</elem>
         <elem id="269">   5903,   5924,   6365,   6344,   5902,   5923,   6364,   6343</elem>
         <elem id="276">   6050,   6071,   6512,   6491,   6049,   6070,   6511,   6490</elem>
         <elem id="338">   7415,   7436,   7877,   7856,   7414,   7435,   7876,   7855</elem>
         <elem id="356">   7814,   7835,   8276,   8255,   7813,   7834,   8275,   8254</elem>
         <elem id="367">   8066,   8087,   8528,   8507,   8065,   8086,   8527,   8506</elem>
<!-- ... 523 like lines cut -->
      </Elements>
      <Elements mat="10" name="Block_10" type="hex8">
         <elem id="35">   737,   758,   1199,   1178,   736,   757,   1198,   1177</elem>
         <elem id="48">   1031,   1052,   1493,   1472,   1030,   1051,   1492,   1471</elem>
         <elem id="71">   1535,   1556,   1997,   1976,   1534,   1555,   1996,   1975</elem>
         <elem id="101">   2207,   2228,   2669,   2648,   2206,   2227,   2668,   2647</elem>
         <elem id="116">   2522,   2543,   2984,   2963,   2521,   2542,   2983,   2962</elem>
         <elem id="122">   2669,   2690,   3131,   3110,   2668,   2689,   3130,   3109</elem>
         <elem id="129">   2816,   2837,   3278,   3257,   2815,   2836,   3277,   3256</elem>
         <elem id="166">   3635,   3656,   4097,   4076,   3634,   3655,   4096,   4075</elem>
         <elem id="222">   4874,   4895,   5336,   5315,   4873,   4894,   5335,   5314</elem>
         <elem id="225">   4937,   4958,   5399,   5378,   4936,   4957,   5398,   5377</elem>
         <elem id="231">   5063,   5084,   5525,   5504,   5062,   5083,   5524,   5503</elem>
         <elem id="274">   6008,   6029,   6470,   6449,   6007,   6028,   6469,   6448</elem>
         <elem id="290">   6365,   6386,   6827,   6806,   6364,   6385,   6826,   6805</elem>
         <elem id="300">   6575,   6596,   7037,   7016,   6574,   6595,   7036,   7015</elem>
         <elem id="311">   6827,   6848,   7289,   7268,   6826,   6847,   7288,   7267</elem>
         <elem id="337">   7394,   7415,   7856,   7835,   7393,   7414,   7855,   7834</elem>
         <elem id="342">   7520,   7541,   7982,   7961,   7519,   7540,   7981,   7960</elem>
         <elem id="343">   7541,   7562,   8003,   7982,   7540,   7561,   8002,   7981</elem>
         <elem id="387">   8507,   8528,   8969,   8948,   8506,   8527,   8968,   8947</elem>
         <elem id="395">   8675,   8696,   9137,   9116,   8674,   8695,   9136,   9115</elem>
<!-- ... 543 like lines cut -->
      </Elements>
      <Elements mat="11" name="Block_11" type="hex8">
         <elem id="8">   149,   170,   611,   590,   148,   169,   610,   589</elem>
         <elem id="34">   716,   737,   1178,   1157,   715,   736,   1177,   1156</elem>
         <elem id="51">   1094,   1115,   1556,   1535,   1093,   1114,   1555,   1534</elem>
         <elem id="85">   1850,   1871,   2312,   2291,   1849,   1870,   2311,   2290</elem>
         <elem id="86">   1871,   1892,   2333,   2312,   1870,   1891,   2332,   2311</elem>
         <elem id="110">   2396,   2417,   2858,   2837,   2395,   2416,   2857,   2836</elem>
         <elem id="117">   2543,   2564,   3005,   2984,   2542,   2563,   3004,   2983</elem>
         <elem id="159">   3467,   3488,   3929,   3908,   3466,   3487,   3928,   3907</elem>
         <elem id="176">   3845,   3866,   4307,   4286,   3844,   3865,   4306,   4285</elem>
         <elem id="182">   3992,   4013,   4454,   4433,   3991,   4012,   4453,   4432</elem>
         <elem id="197">   4307,   4328,   4769,   4748,   4306,   4327,   4768,   4747</elem>
         <elem id="202">   4433,   4454,   4895,   4874,   4432,   4453,   4894,   4873</elem>
         <elem id="218">   4769,   4790,   5231,   5210,   4768,   4789,   5230,   5209</elem>
         <elem id="238">   5210,   5231,   5672,   5651,   5209,   5230,   5671,   5650</elem>
         <elem id="280">   6134,   6155,   6596,   6575,   6133,   6154,   6595,   6574</elem>
         <elem id="319">   6995,   7016,   7457,   7436,   6994,   7015,   7456,   7435</elem>
         <elem id="332">   7289,   7310,   7751,   7730,   7288,   7309,   7750,   7729</elem>
         <elem id="341">   7499,   7520,   7961,   7940,   7498,   7519,   7960,   7939</elem>
         <elem id="346">   7604,   7625,   8066,   8045,   7603,   7624,   8065,   8044</elem>
         <elem id="352">   7730,   7751,   8192,   8171,   7729,   7750,   8191,   8170</elem>
<!-- ... 548 like lines cut -->
      </Elements>
      <Elements mat="12" name="Block_12" type="hex8">
         <elem id="29">   611,   632,   1073,   1052,   610,   631,   1072,   1051</elem>
         <elem id="32">   674,   695,   1136,   1115,   673,   694,   1135,   1114</elem>
         <elem id="33">   695,   716,   1157,   1136,   694,   715,   1156,   1135</elem>
         <elem id="41">   884,   905,   1346,   1325,   883,   904,   1345,   1324</elem>
         <elem id="42">   905,   926,   1367,   1346,   904,   925,   1366,   1345</elem>
         <elem id="49">   1052,   1073,   1514,   1493,   1051,   1072,   1513,   1492</elem>
         <elem id="63">   1367,   1388,   1829,   1808,   1366,   1387,   1828,   1807</elem>
         <elem id="68">   1472,   1493,   1934,   1913,   1471,   1492,   1933,   1912</elem>
         <elem id="84">   1829,   1850,   2291,   2270,   1828,   1849,   2290,   2269</elem>
         <elem id="87">   1892,   1913,   2354,   2333,   1891,   1912,   2353,   2332</elem>
         <elem id="90">   1955,   1976,   2417,   2396,   1954,   1975,   2416,   2395</elem>
         <elem id="102">   2228,   2249,   2690,   2669,   2227,   2248,   2689,   2668</elem>
         <elem id="127">   2774,   2795,   3236,   3215,   2773,   2794,   3235,   3214</elem>
         <elem id="128">   2795,   2816,   3257,   3236,   2794,   2815,   3256,   3235</elem>
         <elem id="136">   2963,   2984,   3425,   3404,   2962,   2983,   3424,   3403</elem>
         <elem id="138">   3005,   3026,   3467,   3446,   3004,   3025,   3466,   3445</elem>
         <elem id="143">   3131,   3152,   3593,   3572,   3130,   3151,   3592,   3571</elem>
         <elem id="146">   3194,   3215,   3656,   3635,   3193,   3214,   3655,   3634</elem>
         <elem id="180">   3929,   3950,   4391,   4370,   3928,   3949,   4390,   4369</elem>
         <elem id="205">   4496,   4517,   4958,   4937,   4495,   4516,   4957,   4936</elem>
<!-- ... 557 like lines cut -->
      </Elements>
      <Elements mat="13" name="Block_13" type="hex8">
         <elem id="9">   170,   191,   632,   611,   169,   190,   631,   610</elem>
         <elem id="15">   296,   317,   758,   737,   295,   316,   757,   736</elem>
         <elem id="30">   632,   653,   1094,   1073,   631,   652,   1093,   1072</elem>
         <elem id="31">   653,   674,   1115,   1094,   652,   673,   1114,   1093</elem>
         <elem id="50">   1073,   1094,   1535,   1514,   1072,   1093,   1534,   1513</elem>
         <elem id="70">   1514,   1535,   1976,   1955,   1513,   1534,   1975,   1954</elem>
         <elem id="81">   1766,   1787,   2228,   2207,   1765,   1786,   2227,   2206</elem>
         <elem id="105">   2291,   2312,   2753,   2732,   2290,   2311,   2752,   2731</elem>
         <elem id="106">   2312,   2333,   2774,   2753,   2311,   2332,   2773,   2752</elem>
         <elem id="123">   2690,   2711,   3152,   3131,   2689,   2710,   3151,   3130</elem>
         <elem id="126">   2753,   2774,   3215,   3194,   2752,   2773,   3214,   3193</elem>
         <elem id="156">   3404,   3425,   3866,   3845,   3403,   3424,   3865,   3844</elem>
         <elem id="163">   3572,   3593,   4034,   4013,   3571,   3592,   4033,   4012</elem>
         <elem id="165">   3614,   3635,   4076,   4055,   3613,   3634,   4075,   4054</elem>
         <elem id="177">   3866,   3887,   4328,   4307,   3865,   3886,   4327,   4306</elem>
         <elem id="179">   3908,   3929,   4370,   4349,   3907,   3928,   4369,   4348</elem>
         <elem id="185">   4055,   4076,   4517,   4496,   4054,   4075,   4516,   4495</elem>
         <elem id="198">   4328,   4349,   4790,   4769,   4327,   4348,   4789,   4768</elem>
         <elem id="219">   4790,   4811,   5252,   5231,   4789,   4810,   5251,   5230</elem>
         <elem id="239">   5231,   5252,   5693,   5672,   5230,   5251,   5692,   5671</elem>
<!-- ... 574 like lines cut -->
      </Elements>
      <Elements mat="14" name="Block_14" type="hex8">
         <elem id="10">   191,   212,   653,   632,   190,   211,   652,   631</elem>
         <elem id="11">   212,   233,   674,   653,   211,   232,   673,   652</elem>
         <elem id="12">   233,   254,   695,   674,   232,   253,   694,   673</elem>
         <elem id="14">   275,   296,   737,   716,   274,   295,   736,   715</elem>
         <elem id="61">   1325,   1346,   1787,   1766,   1324,   1345,   1786,   1765</elem>
         <elem id="62">   1346,   1367,   1808,   1787,   1345,   1366,   1807,   1786</elem>
         <elem id="69">   1493,   1514,   1955,   1934,   1492,   1513,   1954,   1933</elem>
         <elem id="83">   1808,   1829,   2270,   2249,   1807,   1828,   2269,   2248</elem>
         <elem id="88">   1913,   1934,   2375,   2354,   1912,   1933,   2374,   2353</elem>
         <elem id="89">   1934,   1955,   2396,   2375,   1933,   1954,   2395,   2374</elem>
         <elem id="103">   2249,   2270,   2711,   2690,   2248,   2269,   2710,   2689</elem>
         <elem id="104">   2270,   2291,   2732,   2711,   2269,   2290,   2731,   2710</elem>
         <elem id="107">   2333,   2354,   2795,   2774,   2332,   2353,   2794,   2773</elem>
         <elem id="108">   2354,   2375,   2816,   2795,   2353,   2374,   2815,   2794</elem>
         <elem id="109">   2375,   2396,   2837,   2816,   2374,   2395,   2836,   2815</elem>
         <elem id="124">   2711,   2732,   3173,   3152,   2710,   2731,   3172,   3151</elem>
         <elem id="125">   2732,   2753,   3194,   3173,   2731,   2752,   3193,   3172</elem>
         <elem id="137">   2984,   3005,   3446,   3425,   2983,   3004,   3445,   3424</elem>
         <elem id="144">   3152,   3173,   3614,   3593,   3151,   3172,   3613,   3592</elem>
         <elem id="145">   3173,   3194,   3635,   3614,   3172,   3193,   3634,   3613</elem>
<!-- ... 648 like lines cut -->
      </Elements>
      <Elements mat="15" name="Block_15" type="hex8">
         <elem id="13">   254,   275,   716,   695,   253,   274,   715,   694</elem>
         <elem id="82">   1787,   1808,   2249,   2228,   1786,   1807,   2248,   2227</elem>
         <elem id="157">   3425,   3446,   3887,   3866,   3424,   3445,   3886,   3865</elem>
         <elem id="164">   3593,   3614,   4055,   4034,   3592,   3613,   4054,   4033</elem>
         <elem id="184">   4034,   4055,   4496,   4475,   4033,   4054,   4495,   4474</elem>
         <elem id="271">   5945,   5966,   6407,   6386,   5944,   5965,   6406,   6385</elem>
         <elem id="298">   6533,   6554,   6995,   6974,   6532,   6553,   6994,   6973</elem>
         <elem id="365">   8024,   8045,   8486,   8465,   8023,   8044,   8485,   8464</elem>
         <elem id="373">   8192,   8213,   8654,   8633,   8191,   8212,   8653,   8632</elem>
         <elem id="393">   8633,   8654,   9095,   9074,   8632,   8653,   9094,   9073</elem>
         <elem id="410">   192,   213,   654,   633,   191,   212,   653,   632</elem>
         <elem id="411">   213,   234,   675,   654,   212,   233,   674,   653</elem>
         <elem id="430">   633,   654,   1095,   1074,   632,   653,   1094,   1073</elem>
         <elem id="450">   1074,   1095,   1536,   1515,   1073,   1094,   1535,   1514</elem>
         <elem id="461">   1326,   1347,   1788,   1767,   1325,   1346,   1787,   1766</elem>
         <elem id="469">   1494,   1515,   1956,   1935,   1493,   1514,   1955,   1934</elem>
         <elem id="489">   1935,   1956,   2397,   2376,   1934,   1955,   2396,   2375</elem>
         <elem id="557">   3426,   3447,   3888,   3867,   3425,   3446,   3887,   3866</elem>
         <elem id="578">   3888,   3909,   4350,   4329,   3887,   3908,   4349,   4328</elem>
         <elem id="599">   4350,   4371,   4812,   4791,   4349,   4370,   4811,   4790</elem>
<!-- ... 196 like lines cut -->
      </Elements>
      <NodeSet name="bcFixList">    1,   22,   43,   64,   85,  106,  127,  148,  169,  190,  211,  232,  253,  274,  295,  316,  337,  358,  379,  400,  421,  442,  463,  484,  505,
  526,  547,  568,  589,  610,  631,  652,  673,  694,  715,  736,  757,  778,  799,  820,  841,  862,  883,  904,  925,  946,  967,  988, 1009, 1030,
 1051, 1072, 1093, 1114, 1135, 1156, 1177, 1198, 1219, 1240, 1261, 1282, 1303, 1324, 1345, 1366, 1387, 1408, 1429, 1450, 1471, 1492, 1513, 1534, 1555,
 1576, 1597, 1618, 1639, 1660, 1681, 1702, 1723, 1744, 1765, 1786, 1807, 1828, 1849, 1870, 1891, 1912, 1933, 1954, 1975, 1996, 2017, 2038, 2059, 2080,
 2101, 2122, 2143, 2164, 2185, 2206, 2227, 2248, 2269, 2290, 2311, 2332, 2353, 2374, 2395, 2416, 2437, 2458, 2479, 2500, 2521, 2542, 2563, 2584, 2605,
 2626, 2647, 2668, 2689, 2710, 2731, 2752, 2773, 2794, 2815, 2836, 2857, 2878, 2899, 2920, 2941, 2962, 2983, 3004, 3025, 3046, 3067, 3088, 3109, 3130,
 3151, 3172, 3193, 3214, 3235, 3256, 3277, 3298, 3319, 3340, 3361, 3382, 3403, 3424, 3445, 3466, 3487, 3508, 3529, 3550, 3571, 3592, 3613, 3634, 3655,
 3676, 3697, 3718, 3739, 3760, 3781, 3802, 3823, 3844, 3865, 3886, 3907, 3928, 3949, 3970, 3991, 4012, 4033, 4054, 4075, 4096, 4117, 4138, 4159, 4180,
 4201, 4222, 4243, 4264, 4285, 4306, 4327, 4348, 4369, 4390, 4411, 4432, 4453, 4474, 4495, 4516, 4537, 4558, 4579, 4600, 4621, 4642, 4663, 4684, 4705,
 4726, 4747, 4768, 4789, 4810, 4831, 4852, 4873, 4894, 4915, 4936, 4957, 4978, 4999, 5020, 5041, 5062, 5083, 5104, 5125, 5146, 5167, 5188, 5209, 5230,
 5251, 5272, 5293, 5314, 5335, 5356, 5377, 5398, 5419, 5440, 5461, 5482, 5503, 5524, 5545, 5566, 5587, 5608, 5629, 5650, 5671, 5692, 5713, 5734, 5755,
 5776, 5797, 5818, 5839, 5860, 5881, 5902, 5923, 5944, 5965, 5986, 6007, 6028, 6049, 6070, 6091, 6112, 6133, 6154, 6175, 6196, 6217, 6238, 6259, 6280,
 6301, 6322, 6343, 6364, 6385, 6406, 6427, 6448, 6469, 6490, 6511, 6532, 6553, 6574, 6595, 6616, 6637, 6658, 6679, 6700, 6721, 6742, 6763, 6784, 6805,
 6826, 6847, 6868, 6889, 6910, 6931, 6952, 6973, 6994, 7015, 7036, 7057, 7078, 7099, 7120, 7141, 7162, 7183, 7204, 7225, 7246, 7267, 7288, 7309, 7330,
 7351, 7372, 7393, 7414, 7435, 7456, 7477, 7498, 7519, 7540, 7561, 7582, 7603, 7624, 7645, 7666, 7687, 7708, 7729, 7750, 7771, 7792, 7813, 7834, 7855,
 7876, 7897, 7918, 7939, 7960, 7981, 8002, 8023, 8044, 8065, 8086, 8107, 8128, 8149, 8170, 8191, 8212, 8233, 8254, 8275, 8296, 8317, 8338, 8359, 8380,
 8401, 8422, 8443, 8464, 8485, 8506, 8527, 8548, 8569, 8590, 8611, 8632, 8653, 8674, 8695, 8716, 8737, 8758, 8779, 8800, 8821, 8842, 8863, 8884, 8905,
 8926, 8947, 8968, 8989, 9010, 9031, 9052, 9073, 9094, 9115, 9136, 9157, 9178, 9199, 9220, 9241</NodeSet>
      <NodeSet name="bcPrescribeList">   21,   42,   63,   84,  105,  126,  147,  168,  189,  210,  231,  252,  273,  294,  315,  336,  357,  378,  399,  420,  441,  462,  483,  504,  525,
  546,  567,  588,  609,  630,  651,  672,  693,  714,  735,  756,  777,  798,  819,  840,  861,  882,  903,  924,  945,  966,  987, 1008, 1029, 1050,
 1071, 1092, 1113, 1134, 1155, 1176, 1197, 1218, 1239, 1260, 1281, 1302, 1323, 1344, 1365, 1386, 1407, 1428, 1449, 1470, 1491, 1512, 1533, 1554, 1575,
 1596, 1617, 1638, 1659, 1680, 1701, 1722, 1743, 1764, 1785, 1806, 1827, 1848, 1869, 1890, 1911, 1932, 1953, 1974, 1995, 2016, 2037, 2058, 2079, 2100,
 2121, 2142, 2163, 2184, 2205, 2226, 2247, 2268, 2289, 2310, 2331, 2352, 2373, 2394, 2415, 2436, 2457, 2478, 2499, 2520, 2541, 2562, 2583, 2604, 2625,
 2646, 2667, 2688, 2709, 2730, 2751, 2772, 2793, 2814, 2835, 2856, 2877, 2898, 2919, 2940, 2961, 2982, 3003, 3024, 3045, 3066, 3087, 3108, 3129, 3150,
 3171, 3192, 3213, 3234, 3255, 3276, 3297, 3318, 3339, 3360, 3381, 3402, 3423, 3444, 3465, 3486, 3507, 3528, 3549, 3570, 3591, 3612, 3633, 3654, 3675,
 3696, 3717, 3738, 3759, 3780, 3801, 3822, 3843, 3864, 3885, 3906, 3927, 3948, 3969, 3990, 4011, 4032, 4053, 4074, 4095, 4116, 4137, 4158, 4179, 4200,
 4221, 4242, 4263, 4284, 4305, 4326, 4347, 4368, 4389, 4410, 4431, 4452, 4473, 4494, 4515, 4536, 4557, 4578, 4599, 4620, 4641, 4662, 4683, 4704, 4725,
 4746, 4767, 4788, 4809, 4830, 4851, 4872, 4893, 4914, 4935, 4956, 4977, 4998, 5019, 5040, 5061, 5082, 5103, 5124, 5145, 5166, 5187, 5208, 5229, 5250,
 5271, 5292, 5313, 5334, 5355, 5376, 5397, 5418, 5439, 5460, 5481, 5502, 5523, 5544, 5565, 5586, 5607, 5628, 5649, 5670, 5691, 5712, 5733, 5754, 5775,
 5796, 5817, 5838, 5859, 5880, 5901, 5922, 5943, 5964, 5985, 6006, 6027, 6048, 6069, 6090, 6111, 6132, 6153, 6174, 6195, 6216, 6237, 6258, 6279, 6300,
 6321, 6342, 6363, 6384, 6405, 6426, 6447, 6468, 6489, 6510, 6531, 6552, 6573, 6594, 6615, 6636, 6657, 6678, 6699, 6720, 6741, 6762, 6783, 6804, 6825,
 6846, 6867, 6888, 6909, 6930, 6951, 6972, 6993, 7014, 7035, 7056, 7077, 7098, 7119, 7140, 7161, 7182, 7203, 7224, 7245, 7266, 7287, 7308, 7329, 7350,
 7371, 7392, 7413, 7434, 7455, 7476, 7497, 7518, 7539, 7560, 7581, 7602, 7623, 7644, 7665, 7686, 7707, 7728, 7749, 7770, 7791, 7812, 7833, 7854, 7875,
 7896, 7917, 7938, 7959, 7980, 8001, 8022, 8043, 8064, 8085, 8106, 8127, 8148, 8169, 8190, 8211, 8232, 8253, 8274, 8295, 8316, 8337, 8358, 8379, 8400,
 8421, 8442, 8463, 8484, 8505, 8526, 8547, 8568, 8589, 8610, 8631, 8652, 8673, 8694, 8715, 8736, 8757, 8778, 8799, 8820, 8841, 8862, 8883, 8904, 8925,
 8946, 8967, 8988, 9009, 9030, 9051, 9072, 9093, 9114, 9135, 9156, 9177, 9198, 9219, 9240, 9261</NodeSet>
   </Geometry>
   <Boundary>
      <fix bc="x" set="bcFixList"/>
      <fix bc="y" set="bcFixList"/>
      <fix bc="z" set="bcFixList"/>
      <prescribe bc="x" lc="1" scale="0" set="bcPrescribeList" type="relative"/>
      <prescribe bc="y" lc="1" scale="0" set="bcPrescribeList" type="relative"/>
      <prescribe bc="z" lc="1" scale="3" set="bcPrescribeList" type="relative"/>
   </Boundary>
   <LoadData>
      <loadcurve id="1" type="linear">
         <loadpoint>0.000000, 0.000000</loadpoint>
         <loadpoint>1.000000, 1.000000</loadpoint>
      </loadcurve>
   </LoadData>
   <Output>
      <plotfile type="febio">
         <var type="displacement"/>
         <var type="stress"/>
         <var type="relative volume"/>
      </plotfile>
      <logfile>
         <node_data data="ux;uy;uz" delim=", " file="D:\MATLAB\GIBBON\trunk\data\temp\tempModel_node_out.txt"/>
         <node_data data="Rx;Ry;Rz" delim=", " file="D:\MATLAB\GIBBON\trunk\data\temp\tempModel_force_out.txt"/>
      </logfile>
   </Output>
</febio_spec>
