<?xml version="1.0" encoding="utf-8"?>
<febio_spec version="2.0"><!--Created using GIBBON, 17-Jun-2016 16:29:33-->
   <Module type="solid"/>
   <Control>
      <time_steps>10.000000</time_steps>
      <step_size>0.100000</step_size>
      <max_refs>25.000000</max_refs>
      <max_ups>0.000000</max_ups>
      <dtol>0.001000</dtol>
      <etol>0.010000</etol>
      <rtol>0.000000</rtol>
      <lstol>0.900000</lstol>
      <analysis type="static"/>
      <time_stepper>
         <dtmin>0.001000</dtmin>
         <dtmax>0.100000</dtmax>
         <max_retries>5.000000</max_retries>
         <opt_iter>5.000000</opt_iter>
      </time_stepper>
   </Control>
   <Globals>
      <Constants>
         <T>0.0000000e+00</T>
         <R>0.0000000e+00</R>
         <Fc>0.0000000e+00</Fc>
      </Constants>
   </Globals>
   <Material>
      <material id="1" name="gel_mat" type="Ogden">
         <c1>1.0000000e-03</c1>
         <m1>2.0000000e+00</m1>
         <k>5.0000000e-02</k>
      </material>
      <material id="2" name="mat_2" type="rigid body">
         <density>1.0000000e+00</density>
         <center_of_mass>0.0000000e+00, 0.0000000e+00, 0.0000000e+00</center_of_mass>
      </material>
   </Material>
   <Geometry>
      <Nodes>
         <node id="1">-5.9031293e+01, -7.4573208e+00, -1.0000000e+02</node>
         <node id="2">-5.9031293e+01, -7.4573208e+00, -6.6666667e+01</node>
         <node id="3">-5.9031293e+01, -7.4573208e+00, -3.3333333e+01</node>
         <node id="4">-5.9031293e+01, -7.4573208e+00, 0.0000000e+00</node>
         <node id="5">-5.9031293e+01, 4.9737992e-14, -8.3333333e+01</node>
         <node id="6">-5.9031293e+01, 4.9737992e-14, -5.0000000e+01</node>
         <node id="7">-5.9031293e+01, 4.9737992e-14, -1.6666667e+01</node>
         <node id="8">-5.9031293e+01, 7.4573208e+00, -1.0000000e+02</node>
         <node id="9">-5.9031293e+01, 7.4573208e+00, -6.6666667e+01</node>
         <node id="10">-5.9031293e+01, 7.4573208e+00, -3.3333333e+01</node>
         <node id="11">-5.9031293e+01, 7.4573208e+00, 0.0000000e+00</node>
         <node id="12">-5.7176560e+01, -1.4680355e+01, -8.3333333e+01</node>
         <node id="13">-5.7176560e+01, -1.4680355e+01, -5.0000000e+01</node>
         <node id="14">-5.7176560e+01, -1.4680355e+01, -1.6666667e+01</node>
         <node id="15">-5.7176560e+01, 1.4680355e+01, -8.3333333e+01</node>
         <node id="16">-5.7176560e+01, 1.4680355e+01, -5.0000000e+01</node>
         <node id="17">-5.7176560e+01, 1.4680355e+01, -1.6666667e+01</node>
         <node id="18">-5.5321827e+01, -2.1903389e+01, -1.0000000e+02</node>
         <node id="19">-5.5321827e+01, -2.1903389e+01, -6.6666667e+01</node>
         <node id="20">-5.5321827e+01, -2.1903389e+01, -3.3333333e+01</node>
<!-- ... 981 like lines cut -->
      </Nodes>
      <Elements mat="1" name="Gel" type="tet4">
         <elem id="1">   483,   285,   520,   655</elem>
         <elem id="2">   440,   333,   475,   510</elem>
         <elem id="3">   533,   529,   734,   743</elem>
         <elem id="4">   16,   30,   309,   350</elem>
         <elem id="5">   47,   86,   69,   359</elem>
         <elem id="6">   696,   142,   772,   775</elem>
         <elem id="7">   324,   616,   699,   728</elem>
         <elem id="8">   300,   3,   323,   344</elem>
         <elem id="9">   511,   180,   729,   754</elem>
         <elem id="10">   21,   53,   387,   464</elem>
         <elem id="11">   54,   34,   44,   72</elem>
         <elem id="12">   9,   23,   16,   350</elem>
         <elem id="13">   191,   175,   283,   307</elem>
         <elem id="14">   55,   45,   341,   357</elem>
         <elem id="15">   542,   451,   549,   680</elem>
         <elem id="16">   420,   539,   595,   723</elem>
         <elem id="17">   35,   55,   291,   357</elem>
         <elem id="18">   388,   527,   614,   638</elem>
         <elem id="19">   228,   529,   533,   555</elem>
         <elem id="20">   124,   144,   290,   362</elem>
<!-- ... 3880 like lines cut -->
      </Elements>
      <Elements mat="2" name="Indentor" type="tri3">
         <elem id="3901">   833,   854,   843</elem>
         <elem id="3902">   824,   823,   816</elem>
         <elem id="3903">   805,   824,   816</elem>
         <elem id="3904">   797,   805,   816</elem>
         <elem id="3905">   804,   797,   816</elem>
         <elem id="3906">   948,   950,   932</elem>
         <elem id="3907">   907,   903,   889</elem>
         <elem id="3908">   908,   892,   893</elem>
         <elem id="3909">   949,   928,   936</elem>
         <elem id="3910">   903,   878,   889</elem>
         <elem id="3911">   928,   915,   936</elem>
         <elem id="3912">   878,   874,   889</elem>
         <elem id="3913">   874,   890,   889</elem>
         <elem id="3914">   875,   879,   893</elem>
         <elem id="3915">   834,   829,   847</elem>
         <elem id="3916">   954,   949,   936</elem>
         <elem id="3917">   927,   948,   932</elem>
         <elem id="3918">   890,   907,   889</elem>
         <elem id="3919">   904,   908,   893</elem>
         <elem id="3920">   854,   864,   843</elem>
<!-- ... 396 like lines cut -->
      </Elements>
      <ElementData>
         <element id="3901">
            <thickness> 1.0000000e-02, 1.0000000e-02, 1.0000000e-02</thickness>
         </element>
         <element id="3902">
            <thickness> 1.0000000e-02, 1.0000000e-02, 1.0000000e-02</thickness>
         </element>
         <element id="3903">
            <thickness> 1.0000000e-02, 1.0000000e-02, 1.0000000e-02</thickness>
         </element>
         <element id="3904">
            <thickness> 1.0000000e-02, 1.0000000e-02, 1.0000000e-02</thickness>
         </element>
         <element id="3905">
            <thickness> 1.0000000e-02, 1.0000000e-02, 1.0000000e-02</thickness>
         </element>
         <element id="3906">
            <thickness> 1.0000000e-02, 1.0000000e-02, 1.0000000e-02</thickness>
         </element>
         <element id="3907">
            <thickness> 1.0000000e-02, 1.0000000e-02, 1.0000000e-02</thickness>
         </element>
         <element id="3908">
            <thickness> 1.0000000e-02, 1.0000000e-02, 1.0000000e-02</thickness>
         </element>
         <element id="3909">
            <thickness> 1.0000000e-02, 1.0000000e-02, 1.0000000e-02</thickness>
         </element>
         <element id="3910">
            <thickness> 1.0000000e-02, 1.0000000e-02, 1.0000000e-02</thickness>
         </element>
         <element id="3911">
            <thickness> 1.0000000e-02, 1.0000000e-02, 1.0000000e-02</thickness>
         </element>
         <element id="3912">
            <thickness> 1.0000000e-02, 1.0000000e-02, 1.0000000e-02</thickness>
         </element>
         <element id="3913">
            <thickness> 1.0000000e-02, 1.0000000e-02, 1.0000000e-02</thickness>
         </element>
         <element id="3914">
            <thickness> 1.0000000e-02, 1.0000000e-02, 1.0000000e-02</thickness>
         </element>
         <element id="3915">
            <thickness> 1.0000000e-02, 1.0000000e-02, 1.0000000e-02</thickness>
         </element>
         <element id="3916">
            <thickness> 1.0000000e-02, 1.0000000e-02, 1.0000000e-02</thickness>
         </element>
         <element id="3917">
            <thickness> 1.0000000e-02, 1.0000000e-02, 1.0000000e-02</thickness>
         </element>
         <element id="3918">
            <thickness> 1.0000000e-02, 1.0000000e-02, 1.0000000e-02</thickness>
         </element>
         <element id="3919">
            <thickness> 1.0000000e-02, 1.0000000e-02, 1.0000000e-02</thickness>
         </element>
         <element id="3920">
            <thickness> 1.0000000e-02, 1.0000000e-02, 1.0000000e-02</thickness>
         </element>
         <element id="3921">
            <thickness> 1.0000000e-02, 1.0000000e-02, 1.0000000e-02</thickness>
         </element>
         <element id="3922">
            <thickness> 1.0000000e-02, 1.0000000e-02, 1.0000000e-02</thickness>
         </element>
         <element id="3923">
            <thickness> 1.0000000e-02, 1.0000000e-02, 1.0000000e-02</thickness>
         </element>
         <element id="3924">
            <thickness> 1.0000000e-02, 1.0000000e-02, 1.0000000e-02</thickness>
         </element>
         <element id="3925">
            <thickness> 1.0000000e-02, 1.0000000e-02, 1.0000000e-02</thickness>
         </element>
         <element id="3926">
            <thickness> 1.0000000e-02, 1.0000000e-02, 1.0000000e-02</thickness>
         </element>
         <element id="3927">
            <thickness> 1.0000000e-02, 1.0000000e-02, 1.0000000e-02</thickness>
         </element>
         <element id="3928">
            <thickness> 1.0000000e-02, 1.0000000e-02, 1.0000000e-02</thickness>
         </element>
         <element id="3929">
            <thickness> 1.0000000e-02, 1.0000000e-02, 1.0000000e-02</thickness>
         </element>
         <element id="3930">
            <thickness> 1.0000000e-02, 1.0000000e-02, 1.0000000e-02</thickness>
         </element>
         <element id="3931">
            <thickness> 1.0000000e-02, 1.0000000e-02, 1.0000000e-02</thickness>
         </element>
         <element id="3932">
            <thickness> 1.0000000e-02, 1.0000000e-02, 1.0000000e-02</thickness>
         </element>
         <element id="3933">
            <thickness> 1.0000000e-02, 1.0000000e-02, 1.0000000e-02</thickness>
         </element>
         <element id="3934">
            <thickness> 1.0000000e-02, 1.0000000e-02, 1.0000000e-02</thickness>
         </element>
         <element id="3935">
            <thickness> 1.0000000e-02, 1.0000000e-02, 1.0000000e-02</thickness>
         </element>
         <element id="3936">
            <thickness> 1.0000000e-02, 1.0000000e-02, 1.0000000e-02</thickness>
         </element>
         <element id="3937">
            <thickness> 1.0000000e-02, 1.0000000e-02, 1.0000000e-02</thickness>
         </element>
         <element id="3938">
            <thickness> 1.0000000e-02, 1.0000000e-02, 1.0000000e-02</thickness>
         </element>
         <element id="3939">
            <thickness> 1.0000000e-02, 1.0000000e-02, 1.0000000e-02</thickness>
         </element>
         <element id="3940">
            <thickness> 1.0000000e-02, 1.0000000e-02, 1.0000000e-02</thickness>
         </element>
         <element id="3941">
            <thickness> 1.0000000e-02, 1.0000000e-02, 1.0000000e-02</thickness>
         </element>
         <element id="3942">
            <thickness> 1.0000000e-02, 1.0000000e-02, 1.0000000e-02</thickness>
         </element>
         <element id="3943">
            <thickness> 1.0000000e-02, 1.0000000e-02, 1.0000000e-02</thickness>
         </element>
         <element id="3944">
            <thickness> 1.0000000e-02, 1.0000000e-02, 1.0000000e-02</thickness>
         </element>
         <element id="3945">
            <thickness> 1.0000000e-02, 1.0000000e-02, 1.0000000e-02</thickness>
         </element>
         <element id="3946">
            <thickness> 1.0000000e-02, 1.0000000e-02, 1.0000000e-02</thickness>
         </element>
         <element id="3947">
            <thickness> 1.0000000e-02, 1.0000000e-02, 1.0000000e-02</thickness>
         </element>
         <element id="3948">
            <thickness> 1.0000000e-02, 1.0000000e-02, 1.0000000e-02</thickness>
         </element>
         <element id="3949">
            <thickness> 1.0000000e-02, 1.0000000e-02, 1.0000000e-02</thickness>
         </element>
         <element id="3950">
            <thickness> 1.0000000e-02, 1.0000000e-02, 1.0000000e-02</thickness>
         </element>
         <element id="3951">
            <thickness> 1.0000000e-02, 1.0000000e-02, 1.0000000e-02</thickness>
         </element>
         <element id="3952">
            <thickness> 1.0000000e-02, 1.0000000e-02, 1.0000000e-02</thickness>
         </element>
         <element id="3953">
            <thickness> 1.0000000e-02, 1.0000000e-02, 1.0000000e-02</thickness>
         </element>
         <element id="3954">
            <thickness> 1.0000000e-02, 1.0000000e-02, 1.0000000e-02</thickness>
         </element>
         <element id="3955">
            <thickness> 1.0000000e-02, 1.0000000e-02, 1.0000000e-02</thickness>
         </element>
         <element id="3956">
            <thickness> 1.0000000e-02, 1.0000000e-02, 1.0000000e-02</thickness>
         </element>
         <element id="3957">
            <thickness> 1.0000000e-02, 1.0000000e-02, 1.0000000e-02</thickness>
         </element>
         <element id="3958">
            <thickness> 1.0000000e-02, 1.0000000e-02, 1.0000000e-02</thickness>
         </element>
         <element id="3959">
            <thickness> 1.0000000e-02, 1.0000000e-02, 1.0000000e-02</thickness>
         </element>
         <element id="3960">
            <thickness> 1.0000000e-02, 1.0000000e-02, 1.0000000e-02</thickness>
         </element>
         <element id="3961">
            <thickness> 1.0000000e-02, 1.0000000e-02, 1.0000000e-02</thickness>
         </element>
         <element id="3962">
            <thickness> 1.0000000e-02, 1.0000000e-02, 1.0000000e-02</thickness>
         </element>
         <element id="3963">
            <thickness> 1.0000000e-02, 1.0000000e-02, 1.0000000e-02</thickness>
         </element>
         <element id="3964">
            <thickness> 1.0000000e-02, 1.0000000e-02, 1.0000000e-02</thickness>
         </element>
         <element id="3965">
            <thickness> 1.0000000e-02, 1.0000000e-02, 1.0000000e-02</thickness>
         </element>
         <element id="3966">
            <thickness> 1.0000000e-02, 1.0000000e-02, 1.0000000e-02</thickness>
         </element>
         <element id="3967">
            <thickness> 1.0000000e-02, 1.0000000e-02, 1.0000000e-02</thickness>
         </element>
         <element id="3968">
            <thickness> 1.0000000e-02, 1.0000000e-02, 1.0000000e-02</thickness>
         </element>
         <element id="3969">
            <thickness> 1.0000000e-02, 1.0000000e-02, 1.0000000e-02</thickness>
         </element>
         <element id="3970">
            <thickness> 1.0000000e-02, 1.0000000e-02, 1.0000000e-02</thickness>
         </element>
         <element id="3971">
            <thickness> 1.0000000e-02, 1.0000000e-02, 1.0000000e-02</thickness>
         </element>
         <element id="3972">
            <thickness> 1.0000000e-02, 1.0000000e-02, 1.0000000e-02</thickness>
         </element>
         <element id="3973">
            <thickness> 1.0000000e-02, 1.0000000e-02, 1.0000000e-02</thickness>
         </element>
         <element id="3974">
            <thickness> 1.0000000e-02, 1.0000000e-02, 1.0000000e-02</thickness>
         </element>
         <element id="3975">
            <thickness> 1.0000000e-02, 1.0000000e-02, 1.0000000e-02</thickness>
         </element>
         <element id="3976">
            <thickness> 1.0000000e-02, 1.0000000e-02, 1.0000000e-02</thickness>
         </element>
         <element id="3977">
            <thickness> 1.0000000e-02, 1.0000000e-02, 1.0000000e-02</thickness>
         </element>
         <element id="3978">
            <thickness> 1.0000000e-02, 1.0000000e-02, 1.0000000e-02</thickness>
         </element>
         <element id="3979">
            <thickness> 1.0000000e-02, 1.0000000e-02, 1.0000000e-02</thickness>
         </element>
         <element id="3980">
            <thickness> 1.0000000e-02, 1.0000000e-02, 1.0000000e-02</thickness>
         </element>
         <element id="3981">
            <thickness> 1.0000000e-02, 1.0000000e-02, 1.0000000e-02</thickness>
         </element>
         <element id="3982">
            <thickness> 1.0000000e-02, 1.0000000e-02, 1.0000000e-02</thickness>
         </element>
         <element id="3983">
            <thickness> 1.0000000e-02, 1.0000000e-02, 1.0000000e-02</thickness>
         </element>
         <element id="3984">
            <thickness> 1.0000000e-02, 1.0000000e-02, 1.0000000e-02</thickness>
         </element>
         <element id="3985">
            <thickness> 1.0000000e-02, 1.0000000e-02, 1.0000000e-02</thickness>
         </element>
         <element id="3986">
            <thickness> 1.0000000e-02, 1.0000000e-02, 1.0000000e-02</thickness>
         </element>
         <element id="3987">
            <thickness> 1.0000000e-02, 1.0000000e-02, 1.0000000e-02</thickness>
         </element>
         <element id="3988">
            <thickness> 1.0000000e-02, 1.0000000e-02, 1.0000000e-02</thickness>
         </element>
         <element id="3989">
            <thickness> 1.0000000e-02, 1.0000000e-02, 1.0000000e-02</thickness>
         </element>
         <element id="3990">
            <thickness> 1.0000000e-02, 1.0000000e-02, 1.0000000e-02</thickness>
         </element>
         <element id="3991">
            <thickness> 1.0000000e-02, 1.0000000e-02, 1.0000000e-02</thickness>
         </element>
         <element id="3992">
            <thickness> 1.0000000e-02, 1.0000000e-02, 1.0000000e-02</thickness>
         </element>
         <element id="3993">
            <thickness> 1.0000000e-02, 1.0000000e-02, 1.0000000e-02</thickness>
         </element>
         <element id="3994">
            <thickness> 1.0000000e-02, 1.0000000e-02, 1.0000000e-02</thickness>
         </element>
         <element id="3995">
            <thickness> 1.0000000e-02, 1.0000000e-02, 1.0000000e-02</thickness>
         </element>
         <element id="3996">
            <thickness> 1.0000000e-02, 1.0000000e-02, 1.0000000e-02</thickness>
         </element>
         <element id="3997">
            <thickness> 1.0000000e-02, 1.0000000e-02, 1.0000000e-02</thickness>
         </element>
         <element id="3998">
            <thickness> 1.0000000e-02, 1.0000000e-02, 1.0000000e-02</thickness>
         </element>
         <element id="3999">
            <thickness> 1.0000000e-02, 1.0000000e-02, 1.0000000e-02</thickness>
         </element>
         <element id="4000">
            <thickness> 1.0000000e-02, 1.0000000e-02, 1.0000000e-02</thickness>
         </element>
         <element id="4001">
            <thickness> 1.0000000e-02, 1.0000000e-02, 1.0000000e-02</thickness>
         </element>
         <element id="4002">
            <thickness> 1.0000000e-02, 1.0000000e-02, 1.0000000e-02</thickness>
         </element>
         <element id="4003">
            <thickness> 1.0000000e-02, 1.0000000e-02, 1.0000000e-02</thickness>
         </element>
         <element id="4004">
            <thickness> 1.0000000e-02, 1.0000000e-02, 1.0000000e-02</thickness>
         </element>
         <element id="4005">
            <thickness> 1.0000000e-02, 1.0000000e-02, 1.0000000e-02</thickness>
         </element>
         <element id="4006">
            <thickness> 1.0000000e-02, 1.0000000e-02, 1.0000000e-02</thickness>
         </element>
         <element id="4007">
            <thickness> 1.0000000e-02, 1.0000000e-02, 1.0000000e-02</thickness>
         </element>
         <element id="4008">
            <thickness> 1.0000000e-02, 1.0000000e-02, 1.0000000e-02</thickness>
         </element>
         <element id="4009">
            <thickness> 1.0000000e-02, 1.0000000e-02, 1.0000000e-02</thickness>
         </element>
         <element id="4010">
            <thickness> 1.0000000e-02, 1.0000000e-02, 1.0000000e-02</thickness>
         </element>
         <element id="4011">
            <thickness> 1.0000000e-02, 1.0000000e-02, 1.0000000e-02</thickness>
         </element>
         <element id="4012">
            <thickness> 1.0000000e-02, 1.0000000e-02, 1.0000000e-02</thickness>
         </element>
         <element id="4013">
            <thickness> 1.0000000e-02, 1.0000000e-02, 1.0000000e-02</thickness>
         </element>
         <element id="4014">
            <thickness> 1.0000000e-02, 1.0000000e-02, 1.0000000e-02</thickness>
         </element>
         <element id="4015">
            <thickness> 1.0000000e-02, 1.0000000e-02, 1.0000000e-02</thickness>
         </element>
         <element id="4016">
            <thickness> 1.0000000e-02, 1.0000000e-02, 1.0000000e-02</thickness>
         </element>
         <element id="4017">
            <thickness> 1.0000000e-02, 1.0000000e-02, 1.0000000e-02</thickness>
         </element>
         <element id="4018">
            <thickness> 1.0000000e-02, 1.0000000e-02, 1.0000000e-02</thickness>
         </element>
         <element id="4019">
            <thickness> 1.0000000e-02, 1.0000000e-02, 1.0000000e-02</thickness>
         </element>
         <element id="4020">
            <thickness> 1.0000000e-02, 1.0000000e-02, 1.0000000e-02</thickness>
         </element>
         <element id="4021">
            <thickness> 1.0000000e-02, 1.0000000e-02, 1.0000000e-02</thickness>
         </element>
         <element id="4022">
            <thickness> 1.0000000e-02, 1.0000000e-02, 1.0000000e-02</thickness>
         </element>
         <element id="4023">
            <thickness> 1.0000000e-02, 1.0000000e-02, 1.0000000e-02</thickness>
         </element>
         <element id="4024">
            <thickness> 1.0000000e-02, 1.0000000e-02, 1.0000000e-02</thickness>
         </element>
         <element id="4025">
            <thickness> 1.0000000e-02, 1.0000000e-02, 1.0000000e-02</thickness>
         </element>
         <element id="4026">
            <thickness> 1.0000000e-02, 1.0000000e-02, 1.0000000e-02</thickness>
         </element>
         <element id="4027">
            <thickness> 1.0000000e-02, 1.0000000e-02, 1.0000000e-02</thickness>
         </element>
         <element id="4028">
            <thickness> 1.0000000e-02, 1.0000000e-02, 1.0000000e-02</thickness>
         </element>
         <element id="4029">
            <thickness> 1.0000000e-02, 1.0000000e-02, 1.0000000e-02</thickness>
         </element>
         <element id="4030">
            <thickness> 1.0000000e-02, 1.0000000e-02, 1.0000000e-02</thickness>
         </element>
         <element id="4031">
            <thickness> 1.0000000e-02, 1.0000000e-02, 1.0000000e-02</thickness>
         </element>
         <element id="4032">
            <thickness> 1.0000000e-02, 1.0000000e-02, 1.0000000e-02</thickness>
         </element>
         <element id="4033">
            <thickness> 1.0000000e-02, 1.0000000e-02, 1.0000000e-02</thickness>
         </element>
         <element id="4034">
            <thickness> 1.0000000e-02, 1.0000000e-02, 1.0000000e-02</thickness>
         </element>
         <element id="4035">
            <thickness> 1.0000000e-02, 1.0000000e-02, 1.0000000e-02</thickness>
         </element>
         <element id="4036">
            <thickness> 1.0000000e-02, 1.0000000e-02, 1.0000000e-02</thickness>
         </element>
         <element id="4037">
            <thickness> 1.0000000e-02, 1.0000000e-02, 1.0000000e-02</thickness>
         </element>
         <element id="4038">
            <thickness> 1.0000000e-02, 1.0000000e-02, 1.0000000e-02</thickness>
         </element>
         <element id="4039">
            <thickness> 1.0000000e-02, 1.0000000e-02, 1.0000000e-02</thickness>
         </element>
         <element id="4040">
            <thickness> 1.0000000e-02, 1.0000000e-02, 1.0000000e-02</thickness>
         </element>
         <element id="4041">
            <thickness> 1.0000000e-02, 1.0000000e-02, 1.0000000e-02</thickness>
         </element>
         <element id="4042">
            <thickness> 1.0000000e-02, 1.0000000e-02, 1.0000000e-02</thickness>
         </element>
         <element id="4043">
            <thickness> 1.0000000e-02, 1.0000000e-02, 1.0000000e-02</thickness>
         </element>
         <element id="4044">
            <thickness> 1.0000000e-02, 1.0000000e-02, 1.0000000e-02</thickness>
         </element>
         <element id="4045">
            <thickness> 1.0000000e-02, 1.0000000e-02, 1.0000000e-02</thickness>
         </element>
         <element id="4046">
            <thickness> 1.0000000e-02, 1.0000000e-02, 1.0000000e-02</thickness>
         </element>
         <element id="4047">
            <thickness> 1.0000000e-02, 1.0000000e-02, 1.0000000e-02</thickness>
         </element>
         <element id="4048">
            <thickness> 1.0000000e-02, 1.0000000e-02, 1.0000000e-02</thickness>
         </element>
         <element id="4049">
            <thickness> 1.0000000e-02, 1.0000000e-02, 1.0000000e-02</thickness>
         </element>
         <element id="4050">
            <thickness> 1.0000000e-02, 1.0000000e-02, 1.0000000e-02</thickness>
         </element>
         <element id="4051">
            <thickness> 1.0000000e-02, 1.0000000e-02, 1.0000000e-02</thickness>
         </element>
         <element id="4052">
            <thickness> 1.0000000e-02, 1.0000000e-02, 1.0000000e-02</thickness>
         </element>
         <element id="4053">
            <thickness> 1.0000000e-02, 1.0000000e-02, 1.0000000e-02</thickness>
         </element>
         <element id="4054">
            <thickness> 1.0000000e-02, 1.0000000e-02, 1.0000000e-02</thickness>
         </element>
         <element id="4055">
            <thickness> 1.0000000e-02, 1.0000000e-02, 1.0000000e-02</thickness>
         </element>
         <element id="4056">
            <thickness> 1.0000000e-02, 1.0000000e-02, 1.0000000e-02</thickness>
         </element>
         <element id="4057">
            <thickness> 1.0000000e-02, 1.0000000e-02, 1.0000000e-02</thickness>
         </element>
         <element id="4058">
            <thickness> 1.0000000e-02, 1.0000000e-02, 1.0000000e-02</thickness>
         </element>
         <element id="4059">
            <thickness> 1.0000000e-02, 1.0000000e-02, 1.0000000e-02</thickness>
         </element>
         <element id="4060">
            <thickness> 1.0000000e-02, 1.0000000e-02, 1.0000000e-02</thickness>
         </element>
         <element id="4061">
            <thickness> 1.0000000e-02, 1.0000000e-02, 1.0000000e-02</thickness>
         </element>
         <element id="4062">
            <thickness> 1.0000000e-02, 1.0000000e-02, 1.0000000e-02</thickness>
         </element>
         <element id="4063">
            <thickness> 1.0000000e-02, 1.0000000e-02, 1.0000000e-02</thickness>
         </element>
         <element id="4064">
            <thickness> 1.0000000e-02, 1.0000000e-02, 1.0000000e-02</thickness>
         </element>
         <element id="4065">
            <thickness> 1.0000000e-02, 1.0000000e-02, 1.0000000e-02</thickness>
         </element>
         <element id="4066">
            <thickness> 1.0000000e-02, 1.0000000e-02, 1.0000000e-02</thickness>
         </element>
         <element id="4067">
            <thickness> 1.0000000e-02, 1.0000000e-02, 1.0000000e-02</thickness>
         </element>
         <element id="4068">
            <thickness> 1.0000000e-02, 1.0000000e-02, 1.0000000e-02</thickness>
         </element>
         <element id="4069">
            <thickness> 1.0000000e-02, 1.0000000e-02, 1.0000000e-02</thickness>
         </element>
         <element id="4070">
            <thickness> 1.0000000e-02, 1.0000000e-02, 1.0000000e-02</thickness>
         </element>
         <element id="4071">
            <thickness> 1.0000000e-02, 1.0000000e-02, 1.0000000e-02</thickness>
         </element>
         <element id="4072">
            <thickness> 1.0000000e-02, 1.0000000e-02, 1.0000000e-02</thickness>
         </element>
         <element id="4073">
            <thickness> 1.0000000e-02, 1.0000000e-02, 1.0000000e-02</thickness>
         </element>
         <element id="4074">
            <thickness> 1.0000000e-02, 1.0000000e-02, 1.0000000e-02</thickness>
         </element>
         <element id="4075">
            <thickness> 1.0000000e-02, 1.0000000e-02, 1.0000000e-02</thickness>
         </element>
         <element id="4076">
            <thickness> 1.0000000e-02, 1.0000000e-02, 1.0000000e-02</thickness>
         </element>
         <element id="4077">
            <thickness> 1.0000000e-02, 1.0000000e-02, 1.0000000e-02</thickness>
         </element>
         <element id="4078">
            <thickness> 1.0000000e-02, 1.0000000e-02, 1.0000000e-02</thickness>
         </element>
         <element id="4079">
            <thickness> 1.0000000e-02, 1.0000000e-02, 1.0000000e-02</thickness>
         </element>
         <element id="4080">
            <thickness> 1.0000000e-02, 1.0000000e-02, 1.0000000e-02</thickness>
         </element>
         <element id="4081">
            <thickness> 1.0000000e-02, 1.0000000e-02, 1.0000000e-02</thickness>
         </element>
         <element id="4082">
            <thickness> 1.0000000e-02, 1.0000000e-02, 1.0000000e-02</thickness>
         </element>
         <element id="4083">
            <thickness> 1.0000000e-02, 1.0000000e-02, 1.0000000e-02</thickness>
         </element>
         <element id="4084">
            <thickness> 1.0000000e-02, 1.0000000e-02, 1.0000000e-02</thickness>
         </element>
         <element id="4085">
            <thickness> 1.0000000e-02, 1.0000000e-02, 1.0000000e-02</thickness>
         </element>
         <element id="4086">
            <thickness> 1.0000000e-02, 1.0000000e-02, 1.0000000e-02</thickness>
         </element>
         <element id="4087">
            <thickness> 1.0000000e-02, 1.0000000e-02, 1.0000000e-02</thickness>
         </element>
         <element id="4088">
            <thickness> 1.0000000e-02, 1.0000000e-02, 1.0000000e-02</thickness>
         </element>
         <element id="4089">
            <thickness> 1.0000000e-02, 1.0000000e-02, 1.0000000e-02</thickness>
         </element>
         <element id="4090">
            <thickness> 1.0000000e-02, 1.0000000e-02, 1.0000000e-02</thickness>
         </element>
         <element id="4091">
            <thickness> 1.0000000e-02, 1.0000000e-02, 1.0000000e-02</thickness>
         </element>
         <element id="4092">
            <thickness> 1.0000000e-02, 1.0000000e-02, 1.0000000e-02</thickness>
         </element>
         <element id="4093">
            <thickness> 1.0000000e-02, 1.0000000e-02, 1.0000000e-02</thickness>
         </element>
         <element id="4094">
            <thickness> 1.0000000e-02, 1.0000000e-02, 1.0000000e-02</thickness>
         </element>
         <element id="4095">
            <thickness> 1.0000000e-02, 1.0000000e-02, 1.0000000e-02</thickness>
         </element>
         <element id="4096">
            <thickness> 1.0000000e-02, 1.0000000e-02, 1.0000000e-02</thickness>
         </element>
         <element id="4097">
            <thickness> 1.0000000e-02, 1.0000000e-02, 1.0000000e-02</thickness>
         </element>
         <element id="4098">
            <thickness> 1.0000000e-02, 1.0000000e-02, 1.0000000e-02</thickness>
         </element>
         <element id="4099">
            <thickness> 1.0000000e-02, 1.0000000e-02, 1.0000000e-02</thickness>
         </element>
         <element id="4100">
            <thickness> 1.0000000e-02, 1.0000000e-02, 1.0000000e-02</thickness>
         </element>
         <element id="4101">
            <thickness> 1.0000000e-02, 1.0000000e-02, 1.0000000e-02</thickness>
         </element>
         <element id="4102">
            <thickness> 1.0000000e-02, 1.0000000e-02, 1.0000000e-02</thickness>
         </element>
         <element id="4103">
            <thickness> 1.0000000e-02, 1.0000000e-02, 1.0000000e-02</thickness>
         </element>
         <element id="4104">
            <thickness> 1.0000000e-02, 1.0000000e-02, 1.0000000e-02</thickness>
         </element>
         <element id="4105">
            <thickness> 1.0000000e-02, 1.0000000e-02, 1.0000000e-02</thickness>
         </element>
         <element id="4106">
            <thickness> 1.0000000e-02, 1.0000000e-02, 1.0000000e-02</thickness>
         </element>
         <element id="4107">
            <thickness> 1.0000000e-02, 1.0000000e-02, 1.0000000e-02</thickness>
         </element>
         <element id="4108">
            <thickness> 1.0000000e-02, 1.0000000e-02, 1.0000000e-02</thickness>
         </element>
         <element id="4109">
            <thickness> 1.0000000e-02, 1.0000000e-02, 1.0000000e-02</thickness>
         </element>
         <element id="4110">
            <thickness> 1.0000000e-02, 1.0000000e-02, 1.0000000e-02</thickness>
         </element>
         <element id="4111">
            <thickness> 1.0000000e-02, 1.0000000e-02, 1.0000000e-02</thickness>
         </element>
         <element id="4112">
            <thickness> 1.0000000e-02, 1.0000000e-02, 1.0000000e-02</thickness>
         </element>
         <element id="4113">
            <thickness> 1.0000000e-02, 1.0000000e-02, 1.0000000e-02</thickness>
         </element>
         <element id="4114">
            <thickness> 1.0000000e-02, 1.0000000e-02, 1.0000000e-02</thickness>
         </element>
         <element id="4115">
            <thickness> 1.0000000e-02, 1.0000000e-02, 1.0000000e-02</thickness>
         </element>
         <element id="4116">
            <thickness> 1.0000000e-02, 1.0000000e-02, 1.0000000e-02</thickness>
         </element>
         <element id="4117">
            <thickness> 1.0000000e-02, 1.0000000e-02, 1.0000000e-02</thickness>
         </element>
         <element id="4118">
            <thickness> 1.0000000e-02, 1.0000000e-02, 1.0000000e-02</thickness>
         </element>
         <element id="4119">
            <thickness> 1.0000000e-02, 1.0000000e-02, 1.0000000e-02</thickness>
         </element>
         <element id="4120">
            <thickness> 1.0000000e-02, 1.0000000e-02, 1.0000000e-02</thickness>
         </element>
         <element id="4121">
            <thickness> 1.0000000e-02, 1.0000000e-02, 1.0000000e-02</thickness>
         </element>
         <element id="4122">
            <thickness> 1.0000000e-02, 1.0000000e-02, 1.0000000e-02</thickness>
         </element>
         <element id="4123">
            <thickness> 1.0000000e-02, 1.0000000e-02, 1.0000000e-02</thickness>
         </element>
         <element id="4124">
            <thickness> 1.0000000e-02, 1.0000000e-02, 1.0000000e-02</thickness>
         </element>
         <element id="4125">
            <thickness> 1.0000000e-02, 1.0000000e-02, 1.0000000e-02</thickness>
         </element>
         <element id="4126">
            <thickness> 1.0000000e-02, 1.0000000e-02, 1.0000000e-02</thickness>
         </element>
         <element id="4127">
            <thickness> 1.0000000e-02, 1.0000000e-02, 1.0000000e-02</thickness>
         </element>
         <element id="4128">
            <thickness> 1.0000000e-02, 1.0000000e-02, 1.0000000e-02</thickness>
         </element>
         <element id="4129">
            <thickness> 1.0000000e-02, 1.0000000e-02, 1.0000000e-02</thickness>
         </element>
         <element id="4130">
            <thickness> 1.0000000e-02, 1.0000000e-02, 1.0000000e-02</thickness>
         </element>
         <element id="4131">
            <thickness> 1.0000000e-02, 1.0000000e-02, 1.0000000e-02</thickness>
         </element>
         <element id="4132">
            <thickness> 1.0000000e-02, 1.0000000e-02, 1.0000000e-02</thickness>
         </element>
         <element id="4133">
            <thickness> 1.0000000e-02, 1.0000000e-02, 1.0000000e-02</thickness>
         </element>
         <element id="4134">
            <thickness> 1.0000000e-02, 1.0000000e-02, 1.0000000e-02</thickness>
         </element>
         <element id="4135">
            <thickness> 1.0000000e-02, 1.0000000e-02, 1.0000000e-02</thickness>
         </element>
         <element id="4136">
            <thickness> 1.0000000e-02, 1.0000000e-02, 1.0000000e-02</thickness>
         </element>
         <element id="4137">
            <thickness> 1.0000000e-02, 1.0000000e-02, 1.0000000e-02</thickness>
         </element>
         <element id="4138">
            <thickness> 1.0000000e-02, 1.0000000e-02, 1.0000000e-02</thickness>
         </element>
         <element id="4139">
            <thickness> 1.0000000e-02, 1.0000000e-02, 1.0000000e-02</thickness>
         </element>
         <element id="4140">
            <thickness> 1.0000000e-02, 1.0000000e-02, 1.0000000e-02</thickness>
         </element>
         <element id="4141">
            <thickness> 1.0000000e-02, 1.0000000e-02, 1.0000000e-02</thickness>
         </element>
         <element id="4142">
            <thickness> 1.0000000e-02, 1.0000000e-02, 1.0000000e-02</thickness>
         </element>
         <element id="4143">
            <thickness> 1.0000000e-02, 1.0000000e-02, 1.0000000e-02</thickness>
         </element>
         <element id="4144">
            <thickness> 1.0000000e-02, 1.0000000e-02, 1.0000000e-02</thickness>
         </element>
         <element id="4145">
            <thickness> 1.0000000e-02, 1.0000000e-02, 1.0000000e-02</thickness>
         </element>
         <element id="4146">
            <thickness> 1.0000000e-02, 1.0000000e-02, 1.0000000e-02</thickness>
         </element>
         <element id="4147">
            <thickness> 1.0000000e-02, 1.0000000e-02, 1.0000000e-02</thickness>
         </element>
         <element id="4148">
            <thickness> 1.0000000e-02, 1.0000000e-02, 1.0000000e-02</thickness>
         </element>
         <element id="4149">
            <thickness> 1.0000000e-02, 1.0000000e-02, 1.0000000e-02</thickness>
         </element>
         <element id="4150">
            <thickness> 1.0000000e-02, 1.0000000e-02, 1.0000000e-02</thickness>
         </element>
         <element id="4151">
            <thickness> 1.0000000e-02, 1.0000000e-02, 1.0000000e-02</thickness>
         </element>
         <element id="4152">
            <thickness> 1.0000000e-02, 1.0000000e-02, 1.0000000e-02</thickness>
         </element>
         <element id="4153">
            <thickness> 1.0000000e-02, 1.0000000e-02, 1.0000000e-02</thickness>
         </element>
         <element id="4154">
            <thickness> 1.0000000e-02, 1.0000000e-02, 1.0000000e-02</thickness>
         </element>
         <element id="4155">
            <thickness> 1.0000000e-02, 1.0000000e-02, 1.0000000e-02</thickness>
         </element>
         <element id="4156">
            <thickness> 1.0000000e-02, 1.0000000e-02, 1.0000000e-02</thickness>
         </element>
         <element id="4157">
            <thickness> 1.0000000e-02, 1.0000000e-02, 1.0000000e-02</thickness>
         </element>
         <element id="4158">
            <thickness> 1.0000000e-02, 1.0000000e-02, 1.0000000e-02</thickness>
         </element>
         <element id="4159">
            <thickness> 1.0000000e-02, 1.0000000e-02, 1.0000000e-02</thickness>
         </element>
         <element id="4160">
            <thickness> 1.0000000e-02, 1.0000000e-02, 1.0000000e-02</thickness>
         </element>
         <element id="4161">
            <thickness> 1.0000000e-02, 1.0000000e-02, 1.0000000e-02</thickness>
         </element>
         <element id="4162">
            <thickness> 1.0000000e-02, 1.0000000e-02, 1.0000000e-02</thickness>
         </element>
         <element id="4163">
            <thickness> 1.0000000e-02, 1.0000000e-02, 1.0000000e-02</thickness>
         </element>
         <element id="4164">
            <thickness> 1.0000000e-02, 1.0000000e-02, 1.0000000e-02</thickness>
         </element>
         <element id="4165">
            <thickness> 1.0000000e-02, 1.0000000e-02, 1.0000000e-02</thickness>
         </element>
         <element id="4166">
            <thickness> 1.0000000e-02, 1.0000000e-02, 1.0000000e-02</thickness>
         </element>
         <element id="4167">
            <thickness> 1.0000000e-02, 1.0000000e-02, 1.0000000e-02</thickness>
         </element>
         <element id="4168">
            <thickness> 1.0000000e-02, 1.0000000e-02, 1.0000000e-02</thickness>
         </element>
         <element id="4169">
            <thickness> 1.0000000e-02, 1.0000000e-02, 1.0000000e-02</thickness>
         </element>
         <element id="4170">
            <thickness> 1.0000000e-02, 1.0000000e-02, 1.0000000e-02</thickness>
         </element>
         <element id="4171">
            <thickness> 1.0000000e-02, 1.0000000e-02, 1.0000000e-02</thickness>
         </element>
         <element id="4172">
            <thickness> 1.0000000e-02, 1.0000000e-02, 1.0000000e-02</thickness>
         </element>
         <element id="4173">
            <thickness> 1.0000000e-02, 1.0000000e-02, 1.0000000e-02</thickness>
         </element>
         <element id="4174">
            <thickness> 1.0000000e-02, 1.0000000e-02, 1.0000000e-02</thickness>
         </element>
         <element id="4175">
            <thickness> 1.0000000e-02, 1.0000000e-02, 1.0000000e-02</thickness>
         </element>
         <element id="4176">
            <thickness> 1.0000000e-02, 1.0000000e-02, 1.0000000e-02</thickness>
         </element>
         <element id="4177">
            <thickness> 1.0000000e-02, 1.0000000e-02, 1.0000000e-02</thickness>
         </element>
         <element id="4178">
            <thickness> 1.0000000e-02, 1.0000000e-02, 1.0000000e-02</thickness>
         </element>
         <element id="4179">
            <thickness> 1.0000000e-02, 1.0000000e-02, 1.0000000e-02</thickness>
         </element>
         <element id="4180">
            <thickness> 1.0000000e-02, 1.0000000e-02, 1.0000000e-02</thickness>
         </element>
         <element id="4181">
            <thickness> 1.0000000e-02, 1.0000000e-02, 1.0000000e-02</thickness>
         </element>
         <element id="4182">
            <thickness> 1.0000000e-02, 1.0000000e-02, 1.0000000e-02</thickness>
         </element>
         <element id="4183">
            <thickness> 1.0000000e-02, 1.0000000e-02, 1.0000000e-02</thickness>
         </element>
         <element id="4184">
            <thickness> 1.0000000e-02, 1.0000000e-02, 1.0000000e-02</thickness>
         </element>
         <element id="4185">
            <thickness> 1.0000000e-02, 1.0000000e-02, 1.0000000e-02</thickness>
         </element>
         <element id="4186">
            <thickness> 1.0000000e-02, 1.0000000e-02, 1.0000000e-02</thickness>
         </element>
         <element id="4187">
            <thickness> 1.0000000e-02, 1.0000000e-02, 1.0000000e-02</thickness>
         </element>
         <element id="4188">
            <thickness> 1.0000000e-02, 1.0000000e-02, 1.0000000e-02</thickness>
         </element>
         <element id="4189">
            <thickness> 1.0000000e-02, 1.0000000e-02, 1.0000000e-02</thickness>
         </element>
         <element id="4190">
            <thickness> 1.0000000e-02, 1.0000000e-02, 1.0000000e-02</thickness>
         </element>
         <element id="4191">
            <thickness> 1.0000000e-02, 1.0000000e-02, 1.0000000e-02</thickness>
         </element>
         <element id="4192">
            <thickness> 1.0000000e-02, 1.0000000e-02, 1.0000000e-02</thickness>
         </element>
         <element id="4193">
            <thickness> 1.0000000e-02, 1.0000000e-02, 1.0000000e-02</thickness>
         </element>
         <element id="4194">
            <thickness> 1.0000000e-02, 1.0000000e-02, 1.0000000e-02</thickness>
         </element>
         <element id="4195">
            <thickness> 1.0000000e-02, 1.0000000e-02, 1.0000000e-02</thickness>
         </element>
         <element id="4196">
            <thickness> 1.0000000e-02, 1.0000000e-02, 1.0000000e-02</thickness>
         </element>
         <element id="4197">
            <thickness> 1.0000000e-02, 1.0000000e-02, 1.0000000e-02</thickness>
         </element>
         <element id="4198">
            <thickness> 1.0000000e-02, 1.0000000e-02, 1.0000000e-02</thickness>
         </element>
         <element id="4199">
            <thickness> 1.0000000e-02, 1.0000000e-02, 1.0000000e-02</thickness>
         </element>
         <element id="4200">
            <thickness> 1.0000000e-02, 1.0000000e-02, 1.0000000e-02</thickness>
         </element>
         <element id="4201">
            <thickness> 1.0000000e-02, 1.0000000e-02, 1.0000000e-02</thickness>
         </element>
         <element id="4202">
            <thickness> 1.0000000e-02, 1.0000000e-02, 1.0000000e-02</thickness>
         </element>
         <element id="4203">
            <thickness> 1.0000000e-02, 1.0000000e-02, 1.0000000e-02</thickness>
         </element>
         <element id="4204">
            <thickness> 1.0000000e-02, 1.0000000e-02, 1.0000000e-02</thickness>
         </element>
         <element id="4205">
            <thickness> 1.0000000e-02, 1.0000000e-02, 1.0000000e-02</thickness>
         </element>
         <element id="4206">
            <thickness> 1.0000000e-02, 1.0000000e-02, 1.0000000e-02</thickness>
         </element>
         <element id="4207">
            <thickness> 1.0000000e-02, 1.0000000e-02, 1.0000000e-02</thickness>
         </element>
         <element id="4208">
            <thickness> 1.0000000e-02, 1.0000000e-02, 1.0000000e-02</thickness>
         </element>
         <element id="4209">
            <thickness> 1.0000000e-02, 1.0000000e-02, 1.0000000e-02</thickness>
         </element>
         <element id="4210">
            <thickness> 1.0000000e-02, 1.0000000e-02, 1.0000000e-02</thickness>
         </element>
         <element id="4211">
            <thickness> 1.0000000e-02, 1.0000000e-02, 1.0000000e-02</thickness>
         </element>
         <element id="4212">
            <thickness> 1.0000000e-02, 1.0000000e-02, 1.0000000e-02</thickness>
         </element>
         <element id="4213">
            <thickness> 1.0000000e-02, 1.0000000e-02, 1.0000000e-02</thickness>
         </element>
         <element id="4214">
            <thickness> 1.0000000e-02, 1.0000000e-02, 1.0000000e-02</thickness>
         </element>
         <element id="4215">
            <thickness> 1.0000000e-02, 1.0000000e-02, 1.0000000e-02</thickness>
         </element>
         <element id="4216">
            <thickness> 1.0000000e-02, 1.0000000e-02, 1.0000000e-02</thickness>
         </element>
         <element id="4217">
            <thickness> 1.0000000e-02, 1.0000000e-02, 1.0000000e-02</thickness>
         </element>
         <element id="4218">
            <thickness> 1.0000000e-02, 1.0000000e-02, 1.0000000e-02</thickness>
         </element>
         <element id="4219">
            <thickness> 1.0000000e-02, 1.0000000e-02, 1.0000000e-02</thickness>
         </element>
         <element id="4220">
            <thickness> 1.0000000e-02, 1.0000000e-02, 1.0000000e-02</thickness>
         </element>
         <element id="4221">
            <thickness> 1.0000000e-02, 1.0000000e-02, 1.0000000e-02</thickness>
         </element>
         <element id="4222">
            <thickness> 1.0000000e-02, 1.0000000e-02, 1.0000000e-02</thickness>
         </element>
         <element id="4223">
            <thickness> 1.0000000e-02, 1.0000000e-02, 1.0000000e-02</thickness>
         </element>
         <element id="4224">
            <thickness> 1.0000000e-02, 1.0000000e-02, 1.0000000e-02</thickness>
         </element>
         <element id="4225">
            <thickness> 1.0000000e-02, 1.0000000e-02, 1.0000000e-02</thickness>
         </element>
         <element id="4226">
            <thickness> 1.0000000e-02, 1.0000000e-02, 1.0000000e-02</thickness>
         </element>
         <element id="4227">
            <thickness> 1.0000000e-02, 1.0000000e-02, 1.0000000e-02</thickness>
         </element>
         <element id="4228">
            <thickness> 1.0000000e-02, 1.0000000e-02, 1.0000000e-02</thickness>
         </element>
         <element id="4229">
            <thickness> 1.0000000e-02, 1.0000000e-02, 1.0000000e-02</thickness>
         </element>
         <element id="4230">
            <thickness> 1.0000000e-02, 1.0000000e-02, 1.0000000e-02</thickness>
         </element>
         <element id="4231">
            <thickness> 1.0000000e-02, 1.0000000e-02, 1.0000000e-02</thickness>
         </element>
         <element id="4232">
            <thickness> 1.0000000e-02, 1.0000000e-02, 1.0000000e-02</thickness>
         </element>
         <element id="4233">
            <thickness> 1.0000000e-02, 1.0000000e-02, 1.0000000e-02</thickness>
         </element>
         <element id="4234">
            <thickness> 1.0000000e-02, 1.0000000e-02, 1.0000000e-02</thickness>
         </element>
         <element id="4235">
            <thickness> 1.0000000e-02, 1.0000000e-02, 1.0000000e-02</thickness>
         </element>
         <element id="4236">
            <thickness> 1.0000000e-02, 1.0000000e-02, 1.0000000e-02</thickness>
         </element>
         <element id="4237">
            <thickness> 1.0000000e-02, 1.0000000e-02, 1.0000000e-02</thickness>
         </element>
         <element id="4238">
            <thickness> 1.0000000e-02, 1.0000000e-02, 1.0000000e-02</thickness>
         </element>
         <element id="4239">
            <thickness> 1.0000000e-02, 1.0000000e-02, 1.0000000e-02</thickness>
         </element>
         <element id="4240">
            <thickness> 1.0000000e-02, 1.0000000e-02, 1.0000000e-02</thickness>
         </element>
         <element id="4241">
            <thickness> 1.0000000e-02, 1.0000000e-02, 1.0000000e-02</thickness>
         </element>
         <element id="4242">
            <thickness> 1.0000000e-02, 1.0000000e-02, 1.0000000e-02</thickness>
         </element>
         <element id="4243">
            <thickness> 1.0000000e-02, 1.0000000e-02, 1.0000000e-02</thickness>
         </element>
         <element id="4244">
            <thickness> 1.0000000e-02, 1.0000000e-02, 1.0000000e-02</thickness>
         </element>
         <element id="4245">
            <thickness> 1.0000000e-02, 1.0000000e-02, 1.0000000e-02</thickness>
         </element>
         <element id="4246">
            <thickness> 1.0000000e-02, 1.0000000e-02, 1.0000000e-02</thickness>
         </element>
         <element id="4247">
            <thickness> 1.0000000e-02, 1.0000000e-02, 1.0000000e-02</thickness>
         </element>
         <element id="4248">
            <thickness> 1.0000000e-02, 1.0000000e-02, 1.0000000e-02</thickness>
         </element>
         <element id="4249">
            <thickness> 1.0000000e-02, 1.0000000e-02, 1.0000000e-02</thickness>
         </element>
         <element id="4250">
            <thickness> 1.0000000e-02, 1.0000000e-02, 1.0000000e-02</thickness>
         </element>
         <element id="4251">
            <thickness> 1.0000000e-02, 1.0000000e-02, 1.0000000e-02</thickness>
         </element>
         <element id="4252">
            <thickness> 1.0000000e-02, 1.0000000e-02, 1.0000000e-02</thickness>
         </element>
         <element id="4253">
            <thickness> 1.0000000e-02, 1.0000000e-02, 1.0000000e-02</thickness>
         </element>
         <element id="4254">
            <thickness> 1.0000000e-02, 1.0000000e-02, 1.0000000e-02</thickness>
         </element>
         <element id="4255">
            <thickness> 1.0000000e-02, 1.0000000e-02, 1.0000000e-02</thickness>
         </element>
         <element id="4256">
            <thickness> 1.0000000e-02, 1.0000000e-02, 1.0000000e-02</thickness>
         </element>
         <element id="4257">
            <thickness> 1.0000000e-02, 1.0000000e-02, 1.0000000e-02</thickness>
         </element>
         <element id="4258">
            <thickness> 1.0000000e-02, 1.0000000e-02, 1.0000000e-02</thickness>
         </element>
         <element id="4259">
            <thickness> 1.0000000e-02, 1.0000000e-02, 1.0000000e-02</thickness>
         </element>
         <element id="4260">
            <thickness> 1.0000000e-02, 1.0000000e-02, 1.0000000e-02</thickness>
         </element>
         <element id="4261">
            <thickness> 1.0000000e-02, 1.0000000e-02, 1.0000000e-02</thickness>
         </element>
         <element id="4262">
            <thickness> 1.0000000e-02, 1.0000000e-02, 1.0000000e-02</thickness>
         </element>
         <element id="4263">
            <thickness> 1.0000000e-02, 1.0000000e-02, 1.0000000e-02</thickness>
         </element>
         <element id="4264">
            <thickness> 1.0000000e-02, 1.0000000e-02, 1.0000000e-02</thickness>
         </element>
         <element id="4265">
            <thickness> 1.0000000e-02, 1.0000000e-02, 1.0000000e-02</thickness>
         </element>
         <element id="4266">
            <thickness> 1.0000000e-02, 1.0000000e-02, 1.0000000e-02</thickness>
         </element>
         <element id="4267">
            <thickness> 1.0000000e-02, 1.0000000e-02, 1.0000000e-02</thickness>
         </element>
         <element id="4268">
            <thickness> 1.0000000e-02, 1.0000000e-02, 1.0000000e-02</thickness>
         </element>
         <element id="4269">
            <thickness> 1.0000000e-02, 1.0000000e-02, 1.0000000e-02</thickness>
         </element>
         <element id="4270">
            <thickness> 1.0000000e-02, 1.0000000e-02, 1.0000000e-02</thickness>
         </element>
         <element id="4271">
            <thickness> 1.0000000e-02, 1.0000000e-02, 1.0000000e-02</thickness>
         </element>
         <element id="4272">
            <thickness> 1.0000000e-02, 1.0000000e-02, 1.0000000e-02</thickness>
         </element>
         <element id="4273">
            <thickness> 1.0000000e-02, 1.0000000e-02, 1.0000000e-02</thickness>
         </element>
         <element id="4274">
            <thickness> 1.0000000e-02, 1.0000000e-02, 1.0000000e-02</thickness>
         </element>
         <element id="4275">
            <thickness> 1.0000000e-02, 1.0000000e-02, 1.0000000e-02</thickness>
         </element>
         <element id="4276">
            <thickness> 1.0000000e-02, 1.0000000e-02, 1.0000000e-02</thickness>
         </element>
         <element id="4277">
            <thickness> 1.0000000e-02, 1.0000000e-02, 1.0000000e-02</thickness>
         </element>
         <element id="4278">
            <thickness> 1.0000000e-02, 1.0000000e-02, 1.0000000e-02</thickness>
         </element>
         <element id="4279">
            <thickness> 1.0000000e-02, 1.0000000e-02, 1.0000000e-02</thickness>
         </element>
         <element id="4280">
            <thickness> 1.0000000e-02, 1.0000000e-02, 1.0000000e-02</thickness>
         </element>
         <element id="4281">
            <thickness> 1.0000000e-02, 1.0000000e-02, 1.0000000e-02</thickness>
         </element>
         <element id="4282">
            <thickness> 1.0000000e-02, 1.0000000e-02, 1.0000000e-02</thickness>
         </element>
         <element id="4283">
            <thickness> 1.0000000e-02, 1.0000000e-02, 1.0000000e-02</thickness>
         </element>
         <element id="4284">
            <thickness> 1.0000000e-02, 1.0000000e-02, 1.0000000e-02</thickness>
         </element>
         <element id="4285">
            <thickness> 1.0000000e-02, 1.0000000e-02, 1.0000000e-02</thickness>
         </element>
         <element id="4286">
            <thickness> 1.0000000e-02, 1.0000000e-02, 1.0000000e-02</thickness>
         </element>
         <element id="4287">
            <thickness> 1.0000000e-02, 1.0000000e-02, 1.0000000e-02</thickness>
         </element>
         <element id="4288">
            <thickness> 1.0000000e-02, 1.0000000e-02, 1.0000000e-02</thickness>
         </element>
         <element id="4289">
            <thickness> 1.0000000e-02, 1.0000000e-02, 1.0000000e-02</thickness>
         </element>
         <element id="4290">
            <thickness> 1.0000000e-02, 1.0000000e-02, 1.0000000e-02</thickness>
         </element>
         <element id="4291">
            <thickness> 1.0000000e-02, 1.0000000e-02, 1.0000000e-02</thickness>
         </element>
         <element id="4292">
            <thickness> 1.0000000e-02, 1.0000000e-02, 1.0000000e-02</thickness>
         </element>
         <element id="4293">
            <thickness> 1.0000000e-02, 1.0000000e-02, 1.0000000e-02</thickness>
         </element>
         <element id="4294">
            <thickness> 1.0000000e-02, 1.0000000e-02, 1.0000000e-02</thickness>
         </element>
         <element id="4295">
            <thickness> 1.0000000e-02, 1.0000000e-02, 1.0000000e-02</thickness>
         </element>
         <element id="4296">
            <thickness> 1.0000000e-02, 1.0000000e-02, 1.0000000e-02</thickness>
         </element>
         <element id="4297">
            <thickness> 1.0000000e-02, 1.0000000e-02, 1.0000000e-02</thickness>
         </element>
         <element id="4298">
            <thickness> 1.0000000e-02, 1.0000000e-02, 1.0000000e-02</thickness>
         </element>
         <element id="4299">
            <thickness> 1.0000000e-02, 1.0000000e-02, 1.0000000e-02</thickness>
         </element>
         <element id="4300">
            <thickness> 1.0000000e-02, 1.0000000e-02, 1.0000000e-02</thickness>
         </element>
         <element id="4301">
            <thickness> 1.0000000e-02, 1.0000000e-02, 1.0000000e-02</thickness>
         </element>
         <element id="4302">
            <thickness> 1.0000000e-02, 1.0000000e-02, 1.0000000e-02</thickness>
         </element>
         <element id="4303">
            <thickness> 1.0000000e-02, 1.0000000e-02, 1.0000000e-02</thickness>
         </element>
         <element id="4304">
            <thickness> 1.0000000e-02, 1.0000000e-02, 1.0000000e-02</thickness>
         </element>
         <element id="4305">
            <thickness> 1.0000000e-02, 1.0000000e-02, 1.0000000e-02</thickness>
         </element>
         <element id="4306">
            <thickness> 1.0000000e-02, 1.0000000e-02, 1.0000000e-02</thickness>
         </element>
         <element id="4307">
            <thickness> 1.0000000e-02, 1.0000000e-02, 1.0000000e-02</thickness>
         </element>
         <element id="4308">
            <thickness> 1.0000000e-02, 1.0000000e-02, 1.0000000e-02</thickness>
         </element>
         <element id="4309">
            <thickness> 1.0000000e-02, 1.0000000e-02, 1.0000000e-02</thickness>
         </element>
         <element id="4310">
            <thickness> 1.0000000e-02, 1.0000000e-02, 1.0000000e-02</thickness>
         </element>
         <element id="4311">
            <thickness> 1.0000000e-02, 1.0000000e-02, 1.0000000e-02</thickness>
         </element>
         <element id="4312">
            <thickness> 1.0000000e-02, 1.0000000e-02, 1.0000000e-02</thickness>
         </element>
         <element id="4313">
            <thickness> 1.0000000e-02, 1.0000000e-02, 1.0000000e-02</thickness>
         </element>
         <element id="4314">
            <thickness> 1.0000000e-02, 1.0000000e-02, 1.0000000e-02</thickness>
         </element>
         <element id="4315">
            <thickness> 1.0000000e-02, 1.0000000e-02, 1.0000000e-02</thickness>
         </element>
         <element id="4316">
            <thickness> 1.0000000e-02, 1.0000000e-02, 1.0000000e-02</thickness>
         </element>
      </ElementData>
      <Surface name="Contact_master_indentor">
         <tri3 id="1">   833,   854,   843</tri3>
         <tri3 id="2">   824,   823,   816</tri3>
         <tri3 id="3">   805,   824,   816</tri3>
         <tri3 id="4">   797,   805,   816</tri3>
         <tri3 id="5">   804,   797,   816</tri3>
         <tri3 id="6">   948,   950,   932</tri3>
         <tri3 id="7">   907,   903,   889</tri3>
         <tri3 id="8">   908,   892,   893</tri3>
         <tri3 id="9">   949,   928,   936</tri3>
         <tri3 id="10">   903,   878,   889</tri3>
         <tri3 id="11">   928,   915,   936</tri3>
         <tri3 id="12">   878,   874,   889</tri3>
         <tri3 id="13">   874,   890,   889</tri3>
         <tri3 id="14">   875,   879,   893</tri3>
         <tri3 id="15">   834,   829,   847</tri3>
         <tri3 id="16">   954,   949,   936</tri3>
         <tri3 id="17">   927,   948,   932</tri3>
         <tri3 id="18">   890,   907,   889</tri3>
         <tri3 id="19">   904,   908,   893</tri3>
         <tri3 id="20">   854,   864,   843</tri3>
<!-- ... 396 like lines cut -->
      </Surface>
      <Surface name="Contact_slave_gel">
         <tri3 id="1">   190,   212,   184</tri3>
         <tri3 id="2">   4,   11,   33</tri3>
         <tri3 id="3">   43,   75,   53</tri3>
         <tri3 id="4">   53,   21,   43</tri3>
         <tri3 id="5">   65,   33,   51</tri3>
         <tri3 id="6">   43,   21,   4</tri3>
         <tri3 id="7">   156,   138,   119</tri3>
         <tri3 id="8">   41,   63,   51</tri3>
         <tri3 id="9">   75,   91,   105</tri3>
         <tri3 id="10">   81,   93,   113</tri3>
         <tri3 id="11">   63,   61,   87</tri3>
         <tri3 id="12">   174,   136,   153</tri3>
         <tri3 id="13">   206,   192,   220</tri3>
         <tri3 id="14">   206,   220,   238</tri3>
         <tri3 id="15">   145,   107,   125</tri3>
         <tri3 id="16">   218,   248,   240</tri3>
         <tri3 id="17">   53,   89,   73</tri3>
         <tri3 id="18">   208,   228,   196</tri3>
         <tri3 id="19">   93,   128,   113</tri3>
         <tri3 id="20">   37,   73,   57</tri3>
<!-- ... 121 like lines cut -->
      </Surface>
      <NodeSet name="indBC_fix">
         <node id="1"/>
         <node id="2"/>
         <node id="3"/>
         <node id="4"/>
         <node id="5"/>
         <node id="6"/>
         <node id="7"/>
         <node id="8"/>
         <node id="9"/>
         <node id="10"/>
         <node id="11"/>
         <node id="12"/>
         <node id="13"/>
         <node id="14"/>
         <node id="15"/>
         <node id="16"/>
         <node id="17"/>
         <node id="18"/>
         <node id="19"/>
         <node id="20"/>
<!-- ... 201 like lines cut -->
      </NodeSet>
   </Geometry>
   <Boundary>
      <fix bc="x" set="indBC_fix"/>
      <fix bc="y" set="indBC_fix"/>
      <fix bc="z" set="indBC_fix"/>
   </Boundary>
   <Contact>
      <contact type="sticky">
         <laugon>0.000000e+00</laugon>
         <tolerance>1.000000e-01</tolerance>
         <penalty>1.000000e+02</penalty>
         <minaug>0.000000e+00</minaug>
         <maxaug>1.000000e+01</maxaug>
         <search_tolerance>1.000000e-02</search_tolerance>
         <max_traction>0.000000e+00</max_traction>
         <snap_tol>1.000000e-02</snap_tol>
         <surface set="Contact_master_indentor" type="master"/>
         <surface set="Contact_slave_gel" type="slave"/>
      </contact>
   </Contact>
   <Constraints>
      <rigid_body mat="2">
         <fixed bc="Rx"/>
         <fixed bc="Ry"/>
         <fixed bc="Rz"/>
         <prescribed bc="x" lc="1">0.0000000e+00</prescribed>
         <prescribed bc="y" lc="1">0.0000000e+00</prescribed>
         <prescribed bc="z" lc="1">-1.5100000e+01</prescribed>
      </rigid_body>
   </Constraints>
   <LoadData>
      <loadcurve id="1" type="linear">
         <loadpoint>0.000000, 0.000000</loadpoint>
         <loadpoint>1.000000, 1.000000</loadpoint>
      </loadcurve>
   </LoadData>
   <Output>
      <plotfile type="febio">
         <var type="displacement"/>
         <var type="stress"/>
         <var type="relative volume"/>
      </plotfile>
      <logfile>
         <node_data data="ux;uy;uz" delim=", " file="tempModel1_node_out.txt"/>
      </logfile>
   </Output>
</febio_spec>
