<?xml version="1.0" encoding="utf-8"?>
<febio_spec version="2.0"><!--Created using GIBBON, 05-Apr-2016 14:17:31-->
   <Module type="solid"/>
   <Control>
      <time_steps>20.000000</time_steps>
      <step_size>0.050000</step_size>
      <max_refs>25.000000</max_refs>
      <max_ups>0.000000</max_ups>
      <dtol>0.001000</dtol>
      <etol>0.010000</etol>
      <rtol>0.000000</rtol>
      <lstol>0.900000</lstol>
      <analysis type="static"/>
      <time_stepper>
         <dtmin>0.000100</dtmin>
         <dtmax>0.050000</dtmax>
         <max_retries>5.000000</max_retries>
         <opt_iter>10.000000</opt_iter>
         <aggressiveness>1.000000</aggressiveness>
      </time_stepper>
   </Control>
   <Globals>
      <Constants>
         <T>0.0000000e+00</T>
         <R>0.0000000e+00</R>
         <Fc>0.0000000e+00</Fc>
      </Constants>
   </Globals>
   <Material>
      <material id="1" name="cube_mat" type="Mooney-Rivlin">
         <c1>1.0000000e-03</c1>
         <c2>0.0000000e+00</c2>
         <k>1.0000000e+00</k>
      </material>
   </Material>
   <Geometry>
      <Nodes>
         <node id="1">0.0000000e+00, 0.0000000e+00, 0.0000000e+00</node>
         <node id="2">0.0000000e+00, 0.0000000e+00, 6.0627227e-01</node>
         <node id="3">0.0000000e+00, 0.0000000e+00, 1.2125445e+00</node>
         <node id="4">0.0000000e+00, 0.0000000e+00, 1.8188168e+00</node>
         <node id="5">0.0000000e+00, 0.0000000e+00, 2.4250891e+00</node>
         <node id="6">0.0000000e+00, 0.0000000e+00, 3.0313613e+00</node>
         <node id="7">0.0000000e+00, 0.0000000e+00, 3.1451838e+00</node>
         <node id="8">0.0000000e+00, 0.0000000e+00, 6.2855502e+00</node>
         <node id="9">0.0000000e+00, 0.0000000e+00, 6.6689949e+00</node>
         <node id="10">0.0000000e+00, 0.0000000e+00, 7.2752672e+00</node>
         <node id="11">0.0000000e+00, 0.0000000e+00, 7.8815395e+00</node>
         <node id="12">0.0000000e+00, 0.0000000e+00, 8.4878117e+00</node>
         <node id="13">0.0000000e+00, 0.0000000e+00, 9.0940840e+00</node>
         <node id="14">0.0000000e+00, 0.0000000e+00, 9.4239354e+00</node>
         <node id="15">0.0000000e+00, 1.1776281e-01, 3.0313613e+00</node>
         <node id="16">0.0000000e+00, 2.3844661e-01, 6.0627227e+00</node>
         <node id="17">0.0000000e+00, 3.6526955e-01, 9.0940840e+00</node>
         <node id="18">0.0000000e+00, 6.0627227e-01, 0.0000000e+00</node>
         <node id="19">0.0000000e+00, 6.0627227e-01, 6.0627227e-01</node>
         <node id="20">0.0000000e+00, 6.0627227e-01, 1.2125445e+00</node>
<!-- ... 6486 like lines cut -->
      </Nodes>
      <Elements mat="1" name="Trabeculae" type="tet4">
         <elem id="1">   1653,   1633,   5104,   6031</elem>
         <elem id="2">   2199,   2108,   5661,   6025</elem>
         <elem id="3">   584,   605,   360,   590</elem>
         <elem id="4">   4699,   4641,   4961,   5895</elem>
         <elem id="5">   1365,   1134,   1131,   5588</elem>
         <elem id="6">   834,   1051,   1077,   6335</elem>
         <elem id="7">   3982,   3896,   3981,   6475</elem>
         <elem id="8">   5278,   5262,   5363,   5584</elem>
         <elem id="9">   3014,   2800,   2960,   5918</elem>
         <elem id="10">   5139,   4699,   5229,   5501</elem>
         <elem id="11">   5241,   2891,   5311,   5612</elem>
         <elem id="12">   4169,   4075,   4872,   5587</elem>
         <elem id="13">   2556,   2785,   2788,   2713</elem>
         <elem id="14">   4832,   4984,   5090,   6277</elem>
         <elem id="15">   3155,   3052,   3197,   5657</elem>
         <elem id="16">   712,   935,   714,   812</elem>
         <elem id="17">   1204,   1247,   5748,   6297</elem>
         <elem id="18">   4367,   4390,   4366,   5166</elem>
         <elem id="19">   2321,   2135,   2136,   6241</elem>
         <elem id="20">   5257,   816,   5726,   6301</elem>
<!-- ... 25591 like lines cut -->
      </Elements>
      <NodeSet name="bcFixList">
         <node id="1"/>
         <node id="18"/>
         <node id="32"/>
         <node id="44"/>
         <node id="57"/>
         <node id="73"/>
         <node id="87"/>
         <node id="166"/>
         <node id="170"/>
         <node id="183"/>
         <node id="197"/>
         <node id="210"/>
         <node id="224"/>
         <node id="240"/>
         <node id="307"/>
         <node id="316"/>
         <node id="328"/>
         <node id="354"/>
         <node id="376"/>
         <node id="384"/>
<!-- ... 280 like lines cut -->
      </NodeSet>
      <NodeSet name="bcPrescribeList">
         <node id="347"/>
         <node id="349"/>
         <node id="353"/>
         <node id="374"/>
         <node id="381"/>
         <node id="383"/>
         <node id="444"/>
         <node id="450"/>
         <node id="458"/>
         <node id="459"/>
         <node id="521"/>
         <node id="533"/>
         <node id="556"/>
         <node id="575"/>
         <node id="618"/>
         <node id="620"/>
         <node id="634"/>
         <node id="638"/>
         <node id="683"/>
         <node id="688"/>
<!-- ... 310 like lines cut -->
      </NodeSet>
   </Geometry>
   <Boundary>
      <fix bc="x" set="bcFixList"/>
      <fix bc="y" set="bcFixList"/>
      <fix bc="z" set="bcFixList"/>
      <prescribe bc="x" lc="1" scale="0" set="bcPrescribeList" type="relative"/>
      <prescribe bc="y" lc="1" scale="0" set="bcPrescribeList" type="relative"/>
      <prescribe bc="z" lc="1" scale="-1.500000e+00" set="bcPrescribeList" type="relative"/>
   </Boundary>
   <LoadData>
      <loadcurve id="1" type="linear">
         <loadpoint>0.000000, 0.000000</loadpoint>
         <loadpoint>1.000000, 1.000000</loadpoint>
      </loadcurve>
   </LoadData>
   <Output>
      <plotfile type="febio">
         <var type="displacement"/>
         <var type="stress"/>
         <var type="relative volume"/>
      </plotfile>
      <logfile>
         <node_data data="ux;uy;uz" delim=", " file="tempModel_node_out.txt"/>
      </logfile>
   </Output>
</febio_spec>
