<?xml version="1.0" encoding="UTF-8"?>
<febio_spec version="2.5">
    <!--Created using GIBBON, 07-Feb-2018 11:14:39-->
    <Module type="solid"/>
    <Control>
        <analysis type="static"/>
        <title>temp</title>
        <time_steps>10</time_steps>
        <step_size>1.0000000e-01</step_size>
        <dtol>1.0000000e-03</dtol>
        <etol>1.0000000e-02</etol>
        <rtol>0</rtol>
        <lstol>9.0000000e-01</lstol>
        <time_stepper>
            <dtmin>3.3333333e-02</dtmin>
            <dtmax>3.0000000e-01</dtmax>
            <max_retries>5</max_retries>
            <opt_iter>10</opt_iter>
        </time_stepper>
        <max_refs>15</max_refs>
        <max_ups>10</max_ups>
        <optimize_bw>0</optimize_bw>
        <plot_level>PLOT_MAJOR_ITRS</plot_level>
        <plot_range>0, -1</plot_range>
        <plot_stride>1</plot_stride>
        <plot_zero_state>0</plot_zero_state>
        <cmax>100000</cmax>
        <print_level>PRINT_MINOR_ITRS</print_level>
        <min_residual>1.0000000e-20</min_residual>
        <output_level>OUTPUT_MAJOR_ITRS</output_level>
    </Control>
    <Globals>
        <Constants>
            <T>0</T>
            <R>0</R>
            <Fc>0</Fc>
        </Constants>
    </Globals>
    <Material>
        <material id="1" type="Ogden">
            <c1>1.0000000e-03</c1>
            <m1>8</m1>
            <c2>1.0000000e-03</c2>
            <m2>-8</m2>
            <k>1.0000000e-01</k>
        </material>
        <material id="2" type="rigid body">
            <density>1</density>
            <center_of_mass>-7.5000000e+00, 1.1050351e-16, 5.1000000e+00</center_of_mass>
        </material>
    </Material>
    <Geometry>
        <Nodes name="nodeSet_all">
            <node id="1">-1.0000000e+01, -2.5000000e+00, -2.5000000e+00</node>
            <node id="2">-1.0000000e+01, -2.0000000e+00, -2.5000000e+00</node>
            <node id="3">-1.0000000e+01, -1.5000000e+00, -2.5000000e+00</node>
            <node id="4">-1.0000000e+01, -1.0000000e+00, -2.5000000e+00</node>
            <node id="5">-1.0000000e+01, -5.0000000e-01, -2.5000000e+00</node>
            <node id="6">-1.0000000e+01, 0.0000000e+00, -2.5000000e+00</node>
            <node id="7">-1.0000000e+01, 5.0000000e-01, -2.5000000e+00</node>
            <node id="8">-1.0000000e+01, 1.0000000e+00, -2.5000000e+00</node>
            <node id="9">-1.0000000e+01, 1.5000000e+00, -2.5000000e+00</node>
            <node id="10">-1.0000000e+01, 2.0000000e+00, -2.5000000e+00</node>
            <node id="11">-1.0000000e+01, 2.5000000e+00, -2.5000000e+00</node>
            <node id="12">-9.5000000e+00, -2.5000000e+00, -2.5000000e+00</node>
            <node id="13">-9.5000000e+00, -2.0000000e+00, -2.5000000e+00</node>
            <node id="14">-9.5000000e+00, -1.5000000e+00, -2.5000000e+00</node>
            <node id="15">-9.5000000e+00, -1.0000000e+00, -2.5000000e+00</node>
            <node id="16">-9.5000000e+00, -5.0000000e-01, -2.5000000e+00</node>
            <node id="17">-9.5000000e+00, 0.0000000e+00, -2.5000000e+00</node>
            <node id="18">-9.5000000e+00, 5.0000000e-01, -2.5000000e+00</node>
            <node id="19">-9.5000000e+00, 1.0000000e+00, -2.5000000e+00</node>
            <node id="20">-9.5000000e+00, 1.5000000e+00, -2.5000000e+00</node>
<!-- ... 5583 like lines cut -->
        </Nodes>
        <Elements mat="1" name="Slab" type="hex8">
            <elem id="1">1, 12, 13, 2, 452, 463, 464, 453</elem>
            <elem id="2">2, 13, 14, 3, 453, 464, 465, 454</elem>
            <elem id="3">3, 14, 15, 4, 454, 465, 466, 455</elem>
            <elem id="4">4, 15, 16, 5, 455, 466, 467, 456</elem>
            <elem id="5">5, 16, 17, 6, 456, 467, 468, 457</elem>
            <elem id="6">6, 17, 18, 7, 457, 468, 469, 458</elem>
            <elem id="7">7, 18, 19, 8, 458, 469, 470, 459</elem>
            <elem id="8">8, 19, 20, 9, 459, 470, 471, 460</elem>
            <elem id="9">9, 20, 21, 10, 460, 471, 472, 461</elem>
            <elem id="10">10, 21, 22, 11, 461, 472, 473, 462</elem>
            <elem id="11">12, 23, 24, 13, 463, 474, 475, 464</elem>
            <elem id="12">13, 24, 25, 14, 464, 475, 476, 465</elem>
            <elem id="13">14, 25, 26, 15, 465, 476, 477, 466</elem>
            <elem id="14">15, 26, 27, 16, 466, 477, 478, 467</elem>
            <elem id="15">16, 27, 28, 17, 467, 478, 479, 468</elem>
            <elem id="16">17, 28, 29, 18, 468, 479, 480, 469</elem>
            <elem id="17">18, 29, 30, 19, 469, 480, 481, 470</elem>
            <elem id="18">19, 30, 31, 20, 470, 481, 482, 471</elem>
            <elem id="19">20, 31, 32, 21, 471, 482, 483, 472</elem>
            <elem id="20">21, 32, 33, 22, 472, 483, 484, 473</elem>
<!-- ... 3980 like lines cut -->
        </Elements>
        <Elements mat="2" name="Sphere" type="tri3">
            <elem id="4001">4970, 5165, 5164</elem>
            <elem id="4002">4962, 5125, 5127</elem>
            <elem id="4003">4962, 5126, 5125</elem>
            <elem id="4004">4971, 5172, 5169</elem>
            <elem id="4005">4965, 5143, 5139</elem>
            <elem id="4006">4966, 5145, 5148</elem>
            <elem id="4007">4973, 5179, 5180</elem>
            <elem id="4008">4973, 5180, 5182</elem>
            <elem id="4009">4973, 5182, 5183</elem>
            <elem id="4010">4973, 5183, 5181</elem>
            <elem id="4011">4971, 5171, 5173</elem>
            <elem id="4012">4969, 5162, 5163</elem>
            <elem id="4013">4963, 5131, 5132</elem>
            <elem id="4014">4964, 5134, 5137</elem>
            <elem id="4015">4968, 5154, 5158</elem>
            <elem id="4016">4963, 5130, 5131</elem>
            <elem id="4017">4971, 5170, 5171</elem>
            <elem id="4018">4968, 5156, 5154</elem>
            <elem id="4019">4967, 5151, 5150</elem>
            <elem id="4020">4967, 5150, 5152</elem>
<!-- ... 1260 like lines cut -->
        </Elements>
        <NodeSet name="bcSupportList">1, 2, 3, 4, 5, 6, 7, 8, 9, 10, 11, 12, 13, 14, 15, 16, 17, 18, 19, 20, 21, 22, 23, 24, 25, 26, 27, 28, 29, 30, 31, 32, 33, 34, 35, 36, 37, 38, 39, 40, 41, 42, 43, 44, 45, 46, 47, 48, 49, 50, 51, 52, 53, 54, 55, 56, 57, 58, 59, 60, 61, 62, 63, 64, 65, 66, 67, 68, 69, 70, 71, 72, 73, 74, 75, 76, 77, 78, 79, 80, 81, 82, 83, 84, 85, 86, 87, 88, 89, 90, 91, 92, 93,
        <Surface name="contact_master">
            <tri3 lid="1">4970, 5165, 5164</tri3>
            <tri3 lid="2">4962, 5125, 5127</tri3>
            <tri3 lid="3">4962, 5126, 5125</tri3>
            <tri3 lid="4">4971, 5172, 5169</tri3>
            <tri3 lid="5">4965, 5143, 5139</tri3>
            <tri3 lid="6">4966, 5145, 5148</tri3>
            <tri3 lid="7">4973, 5179, 5180</tri3>
            <tri3 lid="8">4973, 5180, 5182</tri3>
            <tri3 lid="9">4973, 5182, 5183</tri3>
            <tri3 lid="10">4973, 5183, 5181</tri3>
            <tri3 lid="11">4971, 5171, 5173</tri3>
            <tri3 lid="12">4969, 5162, 5163</tri3>
            <tri3 lid="13">4963, 5131, 5132</tri3>
            <tri3 lid="14">4964, 5134, 5137</tri3>
            <tri3 lid="15">4968, 5154, 5158</tri3>
            <tri3 lid="16">4963, 5130, 5131</tri3>
            <tri3 lid="17">4971, 5170, 5171</tri3>
            <tri3 lid="18">4968, 5156, 5154</tri3>
            <tri3 lid="19">4967, 5151, 5150</tri3>
            <tri3 lid="20">4967, 5150, 5152</tri3>
<!-- ... 1260 like lines cut -->
        </Surface>
        <Surface name="contact_slave">
            <quad4 lid="1">4511, 4522, 4523, 4512</quad4>
            <quad4 lid="2">4512, 4523, 4524, 4513</quad4>
            <quad4 lid="3">4513, 4524, 4525, 4514</quad4>
            <quad4 lid="4">4514, 4525, 4526, 4515</quad4>
            <quad4 lid="5">4515, 4526, 4527, 4516</quad4>
            <quad4 lid="6">4516, 4527, 4528, 4517</quad4>
            <quad4 lid="7">4517, 4528, 4529, 4518</quad4>
            <quad4 lid="8">4518, 4529, 4530, 4519</quad4>
            <quad4 lid="9">4519, 4530, 4531, 4520</quad4>
            <quad4 lid="10">4520, 4531, 4532, 4521</quad4>
            <quad4 lid="11">4522, 4533, 4534, 4523</quad4>
            <quad4 lid="12">4523, 4534, 4535, 4524</quad4>
            <quad4 lid="13">4524, 4535, 4536, 4525</quad4>
            <quad4 lid="14">4525, 4536, 4537, 4526</quad4>
            <quad4 lid="15">4526, 4537, 4538, 4527</quad4>
            <quad4 lid="16">4527, 4538, 4539, 4528</quad4>
            <quad4 lid="17">4528, 4539, 4540, 4529</quad4>
            <quad4 lid="18">4529, 4540, 4541, 4530</quad4>
            <quad4 lid="19">4530, 4541, 4542, 4531</quad4>
            <quad4 lid="20">4531, 4542, 4543, 4532</quad4>
<!-- ... 380 like lines cut -->
        </Surface>
        <SurfacePair name="Contact1">
            <master surface="contact_master"/>
            <slave surface="contact_slave"/>
        </SurfacePair>
    </Geometry>
    <Boundary>
        <fix bc="x" node_set="bcSupportList"/>
        <fix bc="y" node_set="bcSupportList"/>
        <fix bc="z" node_set="bcSupportList"/>
    </Boundary>
    <Contact>
        <contact surface_pair="Contact1" type="facet-to-facet sliding">
            <penalty>100</penalty>
            <auto_penalty>1</auto_penalty>
            <two_pass>0</two_pass>
            <laugon>0</laugon>
            <tolerance>1.0000000e-01</tolerance>
            <gaptol>0</gaptol>
            <minaug>0</minaug>
            <maxaug>10</maxaug>
            <search_tol>1.0000000e-02</search_tol>
            <search_radius>2.5000000e-01</search_radius>
        </contact>
    </Contact>
    <LoadData>
        <loadcurve id="1" type="linear">
            <point>0, 0</point>
            <point>1, 1</point>
            <point>2, 1</point>
        </loadcurve>
        <loadcurve id="2" type="linear">
            <point>0, 0</point>
            <point>1, 0</point>
            <point>2, 1</point>
        </loadcurve>
    </LoadData>
    <Output>
        <plotfile type="febio">
            <var type="displacement"/>
            <var type="stress"/>
            <var type="strain energy density"/>
            <var type="relative volume"/>
        </plotfile>
        <logfile file="/mnt/data/MATLAB/GIT/GIBBON/data/temp/tempModel.txt">
            <node_data data="ux;uy;uz" delim="," file="tempModel_disp_out.txt">1, 2, 3, 4, 5, 6, 7, 8, 9, 10, 11, 12, 13, 14, 15, 16, 17, 18, 19, 20, 21, 22, 23, 24, 25, 26, 27, 28, 29, 30, 31, 32, 33, 34, 35, 36, 37, 38, 39, 40, 41, 42, 43, 44, 45, 46, 47, 48, 49, 50, 51, 52, 53, 54, 55, 56, 57, 58, 59, 60, 61, 62, 63, 64, 65, 66, 67, 68, 69, 70, 71, 72, 73, 74, 75, 76, 77, 78, 79, 80, 81, 82, 83
            <node_data data="Rx;Ry;Rz" delim="," file="tempModel_force_out.txt">1, 2, 3, 4, 5, 6, 7, 8, 9, 10, 11, 12, 13, 14, 15, 16, 17, 18, 19, 20, 21, 22, 23, 24, 25, 26, 27, 28, 29, 30, 31, 32, 33, 34, 35, 36, 37, 38, 39, 40, 41, 42, 43, 44, 45, 46, 47, 48, 49, 50, 51, 52, 53, 54, 55, 56, 57, 58, 59, 60, 61, 62, 63, 64, 65, 66, 67, 68, 69, 70, 71, 72, 73, 74, 75, 76, 77, 78, 79, 80, 81, 82, 8
        </logfile>
    </Output>
    <Step>
        <Control>
            <analysis type="static"/>
            <title>Cube analysis</title>
            <time_steps>10</time_steps>
            <step_size>1.0000000e-01</step_size>
            <time_stepper>
                <dtmin>1.0000000e-03</dtmin>
                <dtmax>1.0000000e-01</dtmax>
                <max_retries>5</max_retries>
                <opt_iter>10</opt_iter>
            </time_stepper>
            <max_refs>25</max_refs>
            <max_ups>0</max_ups>
            <dtol>1.0000000e-03</dtol>
            <etol>1.0000000e-02</etol>
            <rtol>0</rtol>
            <lstol>9.0000000e-01</lstol>
            <optimize_bw>0</optimize_bw>
            <plot_level>PLOT_MAJOR_ITRS</plot_level>
            <plot_range>0, -1</plot_range>
            <plot_stride>1</plot_stride>
            <plot_zero_state>0</plot_zero_state>
            <cmax>100000</cmax>
            <print_level>PRINT_MINOR_ITRS</print_level>
            <min_residual>1.0000000e-20</min_residual>
            <output_level>OUTPUT_MAJOR_ITRS</output_level>
        </Control>
        <Boundary>
            <rigid_body mat="2">
                <fixed bc="x"/>
                <fixed bc="y"/>
                <fixed bc="Rx"/>
                <fixed bc="Ry"/>
                <fixed bc="Rz"/>
                <prescribed bc="z" lc="1">-1.3500000e+00</prescribed>
            </rigid_body>
        </Boundary>
    </Step>
    <Step>
        <Control>
            <analysis type="static"/>
            <title>Cube analysis</title>
            <time_steps>10</time_steps>
            <step_size>1.0000000e-01</step_size>
            <time_stepper>
                <dtmin>1.0000000e-03</dtmin>
                <dtmax>1.0000000e-01</dtmax>
                <max_retries>5</max_retries>
                <opt_iter>10</opt_iter>
            </time_stepper>
            <max_refs>25</max_refs>
            <max_ups>0</max_ups>
            <dtol>1.0000000e-03</dtol>
            <etol>1.0000000e-02</etol>
            <rtol>0</rtol>
            <lstol>9.0000000e-01</lstol>
            <optimize_bw>0</optimize_bw>
            <plot_level>PLOT_MAJOR_ITRS</plot_level>
            <plot_range>0, -1</plot_range>
            <plot_stride>1</plot_stride>
            <plot_zero_state>0</plot_zero_state>
            <cmax>100000</cmax>
            <print_level>PRINT_MINOR_ITRS</print_level>
            <min_residual>1.0000000e-20</min_residual>
            <output_level>OUTPUT_MAJOR_ITRS</output_level>
        </Control>
        <Boundary>
            <rigid_body mat="2">
                <fixed bc="z"/>
                <fixed bc="y"/>
                <fixed bc="Rx"/>
                <fixed bc="Ry"/>
                <fixed bc="Rz"/>
                <prescribed bc="x" lc="2">15</prescribed>
            </rigid_body>
        </Boundary>
    </Step>
</febio_spec>
