<?xml version="1.0" encoding="utf-8"?>
<febio_spec version="2.0"><!--Created using GIBBON, 18-Mar-2016 15:18:08-->
   <Module type="solid"/>
   <Control>
      <time_steps>20.000000</time_steps>
      <step_size>0.050000</step_size>
      <max_refs>25.000000</max_refs>
      <max_ups>0.000000</max_ups>
      <dtol>0.001000</dtol>
      <etol>0.010000</etol>
      <rtol>0.000000</rtol>
      <lstol>0.900000</lstol>
      <analysis type="static"/>
      <time_stepper>
         <dtmin>0.000100</dtmin>
         <dtmax>0.050000</dtmax>
         <max_retries>5.000000</max_retries>
         <opt_iter>10.000000</opt_iter>
         <aggressiveness>1.000000</aggressiveness>
      </time_stepper>
   </Control>
   <Globals>
      <Constants>
         <T>0.0000000e+00</T>
         <R>0.0000000e+00</R>
         <Fc>0.0000000e+00</Fc>
      </Constants>
   </Globals>
   <Material>
      <material id="1" name="cube_mat" type="Mooney-Rivlin">
         <c1>1.0000000e-03</c1>
         <c2>0.0000000e+00</c2>
         <k>1.0000000e+00</k>
      </material>
   </Material>
   <Geometry>
      <Nodes>
         <node id="1">-6.1261057e+00, -6.1261057e+00, -4.4845512e+00</node>
         <node id="2">-6.1261057e+00, -6.1261057e+00, -4.0840704e+00</node>
         <node id="3">-6.1261057e+00, -6.1261057e+00, -3.5735616e+00</node>
         <node id="4">-6.1261057e+00, -6.1261057e+00, -3.0630528e+00</node>
         <node id="5">-6.1261057e+00, -6.1261057e+00, -2.5525440e+00</node>
         <node id="6">-6.1261057e+00, -6.1261057e+00, -2.5422242e+00</node>
         <node id="7">-6.1261057e+00, -6.1261057e+00, 2.9635931e-01</node>
         <node id="8">-6.1261057e+00, -6.1261057e+00, 5.1050881e-01</node>
         <node id="9">-6.1261057e+00, -6.1261057e+00, 1.0210176e+00</node>
         <node id="10">-6.1261057e+00, -6.1261057e+00, 1.5315264e+00</node>
         <node id="11">-6.1261057e+00, -6.1261057e+00, 1.9881760e+00</node>
         <node id="12">-6.1261057e+00, -6.1261057e+00, 5.0286835e+00</node>
         <node id="13">-6.1261057e+00, -6.1261057e+00, 5.1050881e+00</node>
         <node id="14">-6.1261057e+00, -6.1261057e+00, 5.6155969e+00</node>
         <node id="15">-6.1261057e+00, -6.1261057e+00, 6.1261057e+00</node>
         <node id="16">-6.1261057e+00, -6.1001036e+00, 2.0420352e+00</node>
         <node id="17">-6.1261057e+00, -5.8231437e+00, -4.5945793e+00</node>
         <node id="18">-6.1261057e+00, -5.8158364e+00, 2.5525440e+00</node>
         <node id="19">-6.1261057e+00, -5.7289492e+00, -2.0420352e+00</node>
         <node id="20">-6.1261057e+00, -5.6560723e+00, 4.5945793e+00</node>
<!-- ... 9176 like lines cut -->
      </Nodes>
      <Elements mat="1" name="Trabeculae" type="tet4">
         <elem id="1">   4769,   6910,   6984,   7993</elem>
         <elem id="2">   6925,   6593,   7741,   9182</elem>
         <elem id="3">   2315,   2316,   2525,   2540</elem>
         <elem id="4">   126,   454,   127,   123</elem>
         <elem id="5">   961,   6867,   7518,   7893</elem>
         <elem id="6">   5365,   5361,   5443,   7045</elem>
         <elem id="7">   5728,   5729,   5495,   7495</elem>
         <elem id="8">   6700,   6747,   6872,   7932</elem>
         <elem id="9">   3026,   3025,   3014,   2760</elem>
         <elem id="10">   216,   199,   198,   342</elem>
         <elem id="11">   5507,   5744,   6666,   6899</elem>
         <elem id="12">   7479,   959,   8996,   1217</elem>
         <elem id="13">   7878,   1964,   8176,   8632</elem>
         <elem id="14">   7555,   1606,   8360,   9066</elem>
         <elem id="15">   4151,   4212,   4177,   4142</elem>
         <elem id="16">   4335,   4400,   7618,   8979</elem>
         <elem id="17">   6645,   6906,   7076,   7867</elem>
         <elem id="18">   3773,   3775,   3862,   7107</elem>
         <elem id="19">   1909,   1967,   1966,   1973</elem>
         <elem id="20">   6601,   7235,   7398,   7996</elem>
<!-- ... 35701 like lines cut -->
      </Elements>
      <NodeSet name="bcFixList">
         <node id="118"/>
         <node id="120"/>
         <node id="124"/>
         <node id="132"/>
         <node id="145"/>
         <node id="162"/>
         <node id="178"/>
         <node id="196"/>
         <node id="214"/>
         <node id="228"/>
         <node id="242"/>
         <node id="253"/>
         <node id="351"/>
         <node id="382"/>
         <node id="384"/>
         <node id="453"/>
         <node id="455"/>
         <node id="464"/>
         <node id="472"/>
         <node id="478"/>
<!-- ... 362 like lines cut -->
      </NodeSet>
      <NodeSet name="bcPrescribeList">
         <node id="15"/>
         <node id="40"/>
         <node id="64"/>
         <node id="84"/>
         <node id="101"/>
         <node id="106"/>
         <node id="161"/>
         <node id="177"/>
         <node id="193"/>
         <node id="209"/>
         <node id="210"/>
         <node id="358"/>
         <node id="406"/>
         <node id="418"/>
         <node id="421"/>
         <node id="425"/>
         <node id="437"/>
         <node id="439"/>
         <node id="471"/>
         <node id="477"/>
<!-- ... 335 like lines cut -->
      </NodeSet>
   </Geometry>
   <Boundary>
      <fix bc="x" set="bcFixList"/>
      <fix bc="y" set="bcFixList"/>
      <fix bc="z" set="bcFixList"/>
      <prescribe bc="x" lc="1" scale="0" set="bcPrescribeList" type="relative"/>
      <prescribe bc="y" lc="1" scale="0" set="bcPrescribeList" type="relative"/>
      <prescribe bc="z" lc="1" scale="-1.500000e+00" set="bcPrescribeList" type="relative"/>
   </Boundary>
   <LoadData>
      <loadcurve id="1" type="linear">
         <loadpoint>0.000000, 0.000000</loadpoint>
         <loadpoint>1.000000, 1.000000</loadpoint>
      </loadcurve>
   </LoadData>
   <Output>
      <plotfile type="febio">
         <var type="displacement"/>
         <var type="stress"/>
         <var type="relative volume"/>
      </plotfile>
      <logfile>
         <node_data data="ux;uy;uz" delim=", " file="tempModel_node_out.txt"/>
      </logfile>
   </Output>
</febio_spec>
