<?xml version="1.0" encoding="utf-8"?>
<febio_spec version="2.0"><!--Created using GIBBON, 12-Aug-2016 08:22:41-->
   <Module type="solid"/>
   <Control>
      <time_steps>20.000000</time_steps>
      <step_size>0.050000</step_size>
      <max_refs>25.000000</max_refs>
      <max_ups>0.000000</max_ups>
      <dtol>0.001000</dtol>
      <etol>0.010000</etol>
      <rtol>0.000000</rtol>
      <lstol>0.900000</lstol>
      <analysis type="static"/>
      <time_stepper>
         <dtmin>0.000100</dtmin>
         <dtmax>0.050000</dtmax>
         <max_retries>5.000000</max_retries>
         <opt_iter>10.000000</opt_iter>
         <aggressiveness>1.000000</aggressiveness>
      </time_stepper>
   </Control>
   <Globals>
      <Constants>
         <T>0.0000000e+00</T>
         <R>0.0000000e+00</R>
         <Fc>0.0000000e+00</Fc>
      </Constants>
   </Globals>
   <Material>
      <material id="1" name="cube_mat" type="Mooney-Rivlin">
         <c1>1.0000000e-03</c1>
         <c2>0.0000000e+00</c2>
         <k>1.0000000e+00</k>
      </material>
   </Material>
   <Geometry>
      <Nodes>
         <node id="1">0.0000000e+00, 0.0000000e+00, 0.0000000e+00</node>
         <node id="2">0.0000000e+00, 0.0000000e+00, 2.6086957e-01</node>
         <node id="3">0.0000000e+00, 0.0000000e+00, 5.2173913e-01</node>
         <node id="4">0.0000000e+00, 0.0000000e+00, 7.8260870e-01</node>
         <node id="5">0.0000000e+00, 0.0000000e+00, 1.0434783e+00</node>
         <node id="6">0.0000000e+00, 0.0000000e+00, 1.3043478e+00</node>
         <node id="7">0.0000000e+00, 0.0000000e+00, 1.5652174e+00</node>
         <node id="8">0.0000000e+00, 0.0000000e+00, 1.6373562e+00</node>
         <node id="9">0.0000000e+00, 0.0000000e+00, 3.2724804e+00</node>
         <node id="10">0.0000000e+00, 0.0000000e+00, 3.3913043e+00</node>
         <node id="11">0.0000000e+00, 0.0000000e+00, 3.6521739e+00</node>
         <node id="12">0.0000000e+00, 0.0000000e+00, 3.9130435e+00</node>
         <node id="13">0.0000000e+00, 0.0000000e+00, 4.1739130e+00</node>
         <node id="14">0.0000000e+00, 0.0000000e+00, 4.4347826e+00</node>
         <node id="15">0.0000000e+00, 0.0000000e+00, 4.6956522e+00</node>
         <node id="16">0.0000000e+00, 0.0000000e+00, 4.9080435e+00</node>
         <node id="17">0.0000000e+00, 7.4674953e-02, 1.5652174e+00</node>
         <node id="18">0.0000000e+00, 1.5222570e-01, 3.1304348e+00</node>
         <node id="19">0.0000000e+00, 2.3598877e-01, 4.6956522e+00</node>
         <node id="20">0.0000000e+00, 2.6086957e-01, 0.0000000e+00</node>
<!-- ... 10142 like lines cut -->
      </Nodes>
      <Elements mat="1" name="Trabeculae" type="tet4">
         <elem id="1">   4111,   3990,   4117,   10048</elem>
         <elem id="2">   4152,   4230,   7984,   9045</elem>
         <elem id="3">   7127,   7067,   7911,   8471</elem>
         <elem id="4">   648,   528,   827,   532</elem>
         <elem id="5">   1670,   7527,   7742,   7815</elem>
         <elem id="6">   6715,   6695,   6716,   7457</elem>
         <elem id="7">   6790,   6995,   8851,   10060</elem>
         <elem id="8">   7787,   8124,   8244,   8367</elem>
         <elem id="9">   6650,   6680,   6649,   7282</elem>
         <elem id="10">   5659,   5662,   5517,   10080</elem>
         <elem id="11">   6607,   6608,   10135,   10154</elem>
         <elem id="12">   4145,   3982,   4107,   7823</elem>
         <elem id="13">   2138,   1908,   7131,   7226</elem>
         <elem id="14">   7360,   7201,   9954,   10081</elem>
         <elem id="15">   7529,   7709,   8043,   10141</elem>
         <elem id="16">   6815,   7515,   8435,   9288</elem>
         <elem id="17">   8970,   6872,   9265,   9279</elem>
         <elem id="18">   7116,   8678,   8788,   9422</elem>
         <elem id="19">   1831,   1948,   1833,   8758</elem>
         <elem id="20">   3091,   3025,   7136,   9003</elem>
<!-- ... 41853 like lines cut -->
      </Elements>
      <NodeSet name="bcFixList">
         <node id="1"/>
         <node id="20"/>
         <node id="36"/>
         <node id="51"/>
         <node id="67"/>
         <node id="82"/>
         <node id="100"/>
         <node id="116"/>
         <node id="227"/>
         <node id="229"/>
         <node id="246"/>
         <node id="262"/>
         <node id="277"/>
         <node id="293"/>
         <node id="309"/>
         <node id="327"/>
         <node id="432"/>
         <node id="444"/>
         <node id="464"/>
         <node id="467"/>
<!-- ... 396 like lines cut -->
      </NodeSet>
      <NodeSet name="bcPrescribeList">
         <node id="655"/>
         <node id="658"/>
         <node id="659"/>
         <node id="665"/>
         <node id="671"/>
         <node id="682"/>
         <node id="719"/>
         <node id="726"/>
         <node id="776"/>
         <node id="778"/>
         <node id="793"/>
         <node id="802"/>
         <node id="803"/>
         <node id="861"/>
         <node id="864"/>
         <node id="866"/>
         <node id="878"/>
         <node id="888"/>
         <node id="891"/>
         <node id="976"/>
<!-- ... 428 like lines cut -->
      </NodeSet>
   </Geometry>
   <Boundary>
      <fix bc="x" set="bcFixList"/>
      <fix bc="y" set="bcFixList"/>
      <fix bc="z" set="bcFixList"/>
      <prescribe bc="x" lc="1" scale="0" set="bcPrescribeList" type="relative"/>
      <prescribe bc="y" lc="1" scale="0" set="bcPrescribeList" type="relative"/>
      <prescribe bc="z" lc="1" scale="-1.500000e+00" set="bcPrescribeList" type="relative"/>
   </Boundary>
   <LoadData>
      <loadcurve id="1" type="linear">
         <loadpoint>0.000000, 0.000000</loadpoint>
         <loadpoint>1.000000, 1.000000</loadpoint>
      </loadcurve>
   </LoadData>
   <Output>
      <plotfile type="febio">
         <var type="displacement"/>
         <var type="stress"/>
         <var type="relative volume"/>
      </plotfile>
      <logfile>
         <node_data data="ux;uy;uz" delim=", " file="tempModel_node_out.txt"/>
      </logfile>
   </Output>
</febio_spec>
