<?xml version="1.0" encoding="utf-8"?>
<febio_spec version="2.0"><!--Created using GIBBON, 15-Dec-2015 14:38:55-->
   <Module type="solid"/>
   <Control>
      <time_steps>10.000000</time_steps>
      <step_size>0.100000</step_size>
      <max_refs>25.000000</max_refs>
      <max_ups>0.000000</max_ups>
      <dtol>0.001000</dtol>
      <etol>0.010000</etol>
      <rtol>0.000000</rtol>
      <lstol>0.900000</lstol>
      <analysis type="static"/>
      <time_stepper>
         <dtmin>0.000010</dtmin>
         <dtmax>0.100000</dtmax>
         <max_retries>5.000000</max_retries>
         <opt_iter>5.000000</opt_iter>
         <aggressiveness>1.000000</aggressiveness>
      </time_stepper>
   </Control>
   <Globals>
      <Constants>
         <T>0.0000000e+00</T>
         <R>0.0000000e+00</R>
         <Fc>0.0000000e+00</Fc>
      </Constants>
   </Globals>
   <Material>
      <material id="1" name="mat_1" type="Mooney-Rivlin">
         <c1>1.0000000e-03</c1>
         <c2>0.0000000e+00</c2>
         <k>1.0000000e+00</k>
      </material>
      <material id="2" name="mat_2" type="Mooney-Rivlin">
         <c1>2.0000000e-03</c1>
         <c2>0.0000000e+00</c2>
         <k>2.0000000e+00</k>
      </material>
   </Material>
   <Geometry>
      <Nodes>
         <node id="1">6.4383492e-17, -1.0514622e+00, -1.7013016e+00</node>
         <node id="2">6.4383492e-17, -1.0514622e+00, 1.7013016e+00</node>
         <node id="3">6.4383492e-17, 1.0514622e+00, 1.7013016e+00</node>
         <node id="4">6.4383492e-17, 1.0514622e+00, -1.7013016e+00</node>
         <node id="5">-1.0514622e+00, -1.7013016e+00, 0.0000000e+00</node>
         <node id="6">-1.0514622e+00, 1.7013016e+00, 0.0000000e+00</node>
         <node id="7">1.0514622e+00, 1.7013016e+00, 0.0000000e+00</node>
         <node id="8">1.0514622e+00, -1.7013016e+00, 0.0000000e+00</node>
         <node id="9">-1.7013016e+00, 2.0834936e-16, -1.0514622e+00</node>
         <node id="10">1.7013016e+00, 0.0000000e+00, -1.0514622e+00</node>
         <node id="11">1.7013016e+00, 0.0000000e+00, 1.0514622e+00</node>
         <node id="12">-1.7013016e+00, 2.0834936e-16, 1.0514622e+00</node>
         <node id="13">1.2246468e-16, 0.0000000e+00, -2.0000000e+00</node>
         <node id="14">-6.1803399e-01, -1.6180340e+00, -1.0000000e+00</node>
         <node id="15">6.1803399e-01, -1.6180340e+00, -1.0000000e+00</node>
         <node id="16">-1.0000000e+00, -6.1803399e-01, -1.6180340e+00</node>
         <node id="17">1.0000000e+00, -6.1803399e-01, -1.6180340e+00</node>
         <node id="18">1.2246468e-16, 0.0000000e+00, 2.0000000e+00</node>
         <node id="19">-6.1803399e-01, -1.6180340e+00, 1.0000000e+00</node>
         <node id="20">6.1803399e-01, -1.6180340e+00, 1.0000000e+00</node>
<!-- ... 1007 like lines cut -->
      </Nodes>
      <Elements mat="1" name="Sphere_1" type="tet4">
         <elem id="1">   287,   367,   634,   826</elem>
         <elem id="3">   359,   318,   377,   880</elem>
         <elem id="4">   93,   21,   986,   1014</elem>
         <elem id="5">   142,   59,   769,   1001</elem>
         <elem id="6">   252,   254,   172,   871</elem>
         <elem id="7">   223,   220,   350,   378</elem>
         <elem id="8">   248,   337,   338,   340</elem>
         <elem id="9">   304,   306,   309,   1000</elem>
         <elem id="10">   315,   262,   345,   352</elem>
         <elem id="11">   20,   50,   381,   905</elem>
         <elem id="12">   106,   104,   1005,   1020</elem>
         <elem id="14">   29,   114,   105,   349</elem>
         <elem id="15">   193,   31,   934,   947</elem>
         <elem id="16">   33,   132,   125,   369</elem>
         <elem id="17">   84,   86,   9,   340</elem>
         <elem id="18">   73,   77,   363,   554</elem>
         <elem id="21">   33,   100,   344,   352</elem>
         <elem id="22">   365,   875,   882,   884</elem>
         <elem id="23">   320,   158,   872,   949</elem>
         <elem id="24">   1008,   112,   1016,   1018</elem>
<!-- ... 2332 like lines cut -->
      </Elements>
      <Elements mat="2" name="Sphere_2" type="tet4">
         <elem id="2">   483,   444,   635,   770</elem>
         <elem id="13">   629,   404,   723,   868</elem>
         <elem id="19">   468,   544,   692,   809</elem>
         <elem id="20">   385,   436,   454,   792</elem>
         <elem id="28">   189,   231,   473,   917</elem>
         <elem id="32">   616,   207,   773,   800</elem>
         <elem id="35">   462,   527,   545,   803</elem>
         <elem id="42">   409,   615,   685,   840</elem>
         <elem id="53">   576,   693,   695,   815</elem>
         <elem id="57">   582,   421,   746,   864</elem>
         <elem id="62">   409,   615,   674,   685</elem>
         <elem id="64">   287,   195,   294,   681</elem>
         <elem id="72">   597,   476,   641,   924</elem>
         <elem id="88">   468,   164,   594,   809</elem>
         <elem id="108">   392,   500,   581,   851</elem>
         <elem id="110">   723,   404,   751,   916</elem>
         <elem id="112">   552,   559,   817,   911</elem>
         <elem id="116">   535,   573,   593,   868</elem>
         <elem id="120">   438,   483,   505,   635</elem>
         <elem id="126">   618,   485,   651,   699</elem>
<!-- ... 3568 like lines cut -->
      </Elements>
      <Surface name="Pressure_surface">
         <tri3 id="1">   83,   9,   84</tri3>
         <tri3 id="2">   46,   1,   44</tri3>
         <tri3 id="3">   44,   1,   45</tri3>
         <tri3 id="4">   88,   10,   91</tri3>
         <tri3 id="5">   58,   4,   62</tri3>
         <tri3 id="6">   67,   5,   64</tri3>
         <tri3 id="7">   99,   12,   98</tri3>
         <tri3 id="8">   101,   12,   99</tri3>
         <tri3 id="9">   102,   12,   101</tri3>
         <tri3 id="10">   100,   12,   102</tri3>
         <tri3 id="11">   92,   10,   90</tri3>
         <tri3 id="12">   82,   8,   81</tri3>
         <tri3 id="13">   51,   2,   50</tri3>
         <tri3 id="14">   56,   3,   53</tri3>
         <tri3 id="15">   77,   7,   73</tri3>
         <tri3 id="16">   50,   2,   49</tri3>
         <tri3 id="17">   90,   10,   89</tri3>
         <tri3 id="18">   73,   7,   75</tri3>
         <tri3 id="19">   69,   6,   70</tri3>
         <tri3 id="20">   71,   6,   69</tri3>
<!-- ... 300 like lines cut -->
      </Surface>
      <NodeSet name="boundaryConditionNodeList">
         <node id="325"/>
      </NodeSet>
   </Geometry>
   <Boundary>
      <fix bc="x" set="boundaryConditionNodeList"/>
      <fix bc="y" set="boundaryConditionNodeList"/>
      <fix bc="z" set="boundaryConditionNodeList"/>
   </Boundary>
   <Loads>
      <surface_load type="pressure">
         <pressure lc="1">5.000000e-01</pressure>
         <surface set="Pressure_surface"/>
      </surface_load>
   </Loads>
   <LoadData>
      <loadcurve id="1" type="linear">
         <loadpoint>0.000000, 0.000000</loadpoint>
         <loadpoint>1.000000, 1.000000</loadpoint>
      </loadcurve>
   </LoadData>
   <Output>
      <plotfile type="febio">
         <var type="displacement"/>
         <var type="stress"/>
         <var type="relative volume"/>
         <var type="shell thickness"/>
      </plotfile>
      <logfile>
         <node_data data="ux;uy;uz" delim=", " file="tempModel_node_out.txt"/>
      </logfile>
   </Output>
</febio_spec>
