<?xml version="1.0" encoding="utf-8"?>
<febio_spec version="2.0"><!--Created using GIBBON, 13-Apr-2017 12:27:39-->
   <Module type="solid"/>
   <Control>
      <time_steps>10.000000</time_steps>
      <step_size>0.100000</step_size>
      <max_refs>25.000000</max_refs>
      <max_ups>0.000000</max_ups>
      <dtol>0.001000</dtol>
      <etol>0.010000</etol>
      <rtol>0.000000</rtol>
      <lstol>0.900000</lstol>
      <analysis type="static"/>
      <time_stepper>
         <dtmin>0.001000</dtmin>
         <dtmax>0.100000</dtmax>
         <max_retries>5.000000</max_retries>
         <opt_iter>10.000000</opt_iter>
         <aggressiveness>1.000000</aggressiveness>
      </time_stepper>
   </Control>
   <Globals>
      <Constants>
         <T>0.0000000e+00</T>
         <R>0.0000000e+00</R>
         <Fc>0.0000000e+00</Fc>
      </Constants>
   </Globals>
   <Material>
      <material id="1" name="mat_1" type="Ogden">
         <c1>1.0000000e-03</c1>
         <m1>1.2000000e+01</m1>
         <k>1.0000000e+00</k>
      </material>
   </Material>
   <Geometry>
      <Nodes>
         <node id="1">-2.5000000e+00, -2.5000000e+00, -3.0000000e+00</node>
         <node id="2">-2.5000000e+00, -2.5000000e+00, -2.6250000e+00</node>
         <node id="3">-2.5000000e+00, -2.5000000e+00, -2.2500000e+00</node>
         <node id="4">-2.5000000e+00, -2.5000000e+00, -1.8750000e+00</node>
         <node id="5">-2.5000000e+00, -2.5000000e+00, -1.5000000e+00</node>
         <node id="6">-2.5000000e+00, -2.5000000e+00, -1.1250000e+00</node>
         <node id="7">-2.5000000e+00, -2.5000000e+00, -7.5000000e-01</node>
         <node id="8">-2.5000000e+00, -2.5000000e+00, -3.7500000e-01</node>
         <node id="9">-2.5000000e+00, -2.5000000e+00, 0.0000000e+00</node>
         <node id="10">-2.5000000e+00, -2.1153846e+00, -3.0000000e+00</node>
         <node id="11">-2.5000000e+00, -2.1153846e+00, -2.6250000e+00</node>
         <node id="12">-2.5000000e+00, -2.1153846e+00, -2.2500000e+00</node>
         <node id="13">-2.5000000e+00, -2.1153846e+00, -1.8750000e+00</node>
         <node id="14">-2.5000000e+00, -2.1153846e+00, -1.5000000e+00</node>
         <node id="15">-2.5000000e+00, -2.1153846e+00, -1.1250000e+00</node>
         <node id="16">-2.5000000e+00, -2.1153846e+00, -7.5000000e-01</node>
         <node id="17">-2.5000000e+00, -2.1153846e+00, -3.7500000e-01</node>
         <node id="18">-2.5000000e+00, -2.1153846e+00, 0.0000000e+00</node>
         <node id="19">-2.5000000e+00, -1.7307692e+00, -3.0000000e+00</node>
         <node id="20">-2.5000000e+00, -1.7307692e+00, -2.6250000e+00</node>
<!-- ... 2458 like lines cut -->
      </Nodes>
      <Elements mat="1" name="Tissue" type="tet4">
         <elem id="1">   773,   803,   860,   1052</elem>
         <elem id="2">   1141,   939,   1352,   1904</elem>
         <elem id="3">   970,   802,   1016,   1073</elem>
         <elem id="4">   1415,   557,   1495,   1549</elem>
         <elem id="5">   1151,   1512,   1947,   2252</elem>
         <elem id="6">   1310,   1497,   1663,   1903</elem>
         <elem id="7">   318,   1037,   1178,   1409</elem>
         <elem id="8">   835,   836,   1414,   2129</elem>
         <elem id="9">   1064,   1164,   1380,   1407</elem>
         <elem id="10">   1006,   306,   1204,   2341</elem>
         <elem id="11">   725,   724,   1197,   2362</elem>
         <elem id="12">   398,   998,   1240,   1477</elem>
         <elem id="13">   1167,   1877,   1957,   1959</elem>
         <elem id="14">   1423,   806,   1755,   2204</elem>
         <elem id="15">   429,   431,   428,   1062</elem>
         <elem id="16">   1470,   952,   1982,   2102</elem>
         <elem id="17">   516,   1092,   1372,   1697</elem>
         <elem id="18">   892,   792,   1267,   1502</elem>
         <elem id="19">   674,   605,   1975,   2133</elem>
         <elem id="20">   230,   1056,   1352,   1453</elem>
<!-- ... 12952 like lines cut -->
      </Elements>
      <Surface name="Pressure_surface">
         <tri3 id="1">   135,   9,   18</tri3>
         <tri3 id="2">   137,   18,   27</tri3>
         <tri3 id="3">   139,   27,   36</tri3>
         <tri3 id="4">   141,   36,   45</tri3>
         <tri3 id="5">   143,   45,   54</tri3>
         <tri3 id="6">   145,   54,   63</tri3>
         <tri3 id="7">   147,   63,   72</tri3>
         <tri3 id="8">   149,   72,   81</tri3>
         <tri3 id="9">   151,   81,   90</tri3>
         <tri3 id="10">   153,   90,   99</tri3>
         <tri3 id="11">   155,   99,   108</tri3>
         <tri3 id="12">   157,   108,   117</tri3>
         <tri3 id="13">   159,   117,   126</tri3>
         <tri3 id="14">   177,   135,   137</tri3>
         <tri3 id="15">   179,   137,   139</tri3>
         <tri3 id="16">   181,   139,   141</tri3>
         <tri3 id="17">   183,   141,   143</tri3>
         <tri3 id="18">   185,   143,   145</tri3>
         <tri3 id="19">   187,   145,   147</tri3>
         <tri3 id="20">   189,   147,   149</tri3>
<!-- ... 318 like lines cut -->
      </Surface>
      <NodeSet name="bcRigidListFull">
         <node id="1"/>
         <node id="10"/>
         <node id="19"/>
         <node id="28"/>
         <node id="37"/>
         <node id="46"/>
         <node id="55"/>
         <node id="64"/>
         <node id="73"/>
         <node id="82"/>
         <node id="91"/>
         <node id="100"/>
         <node id="109"/>
         <node id="118"/>
         <node id="127"/>
         <node id="136"/>
         <node id="138"/>
         <node id="140"/>
         <node id="142"/>
         <node id="144"/>
<!-- ... 338 like lines cut -->
      </NodeSet>
   </Geometry>
   <Boundary>
      <fix bc="x" set="bcRigidListFull"/>
      <fix bc="y" set="bcRigidListFull"/>
      <fix bc="z" set="bcRigidListFull"/>
   </Boundary>
   <Loads>
      <surface_load type="pressure">
         <pressure lc="1">-2.000000e-03</pressure>
         <surface set="Pressure_surface"/>
      </surface_load>
   </Loads>
   <LoadData>
      <loadcurve id="1" type="linear">
         <loadpoint>0.000000, 0.000000</loadpoint>
         <loadpoint>1.000000, 1.000000</loadpoint>
      </loadcurve>
   </LoadData>
   <Output>
      <plotfile type="febio">
         <var type="displacement"/>
         <var type="stress"/>
         <var type="relative volume"/>
      </plotfile>
      <logfile>
         <node_data data="ux;uy;uz" delim=", " file="tempModel_node_out.txt"/>
      </logfile>
   </Output>
</febio_spec>
