<?xml version="1.0" encoding="UTF-8"?>
<febio_spec version="3.0">
    <!--Created using GIBBON, 07-Jun-2021 21:14:24-->
    <Module type="solid"/>
    <Globals>
        <Constants>
            <T>8.3140000e-06</T>
            <R>298</R>
            <Fc>9.6485000e-05</Fc>
        </Constants>
    </Globals>
    <Material>
        <material id="1" name="Material1" type="Ogden">
            <c1>1.0000000e-03</c1>
            <m1>2</m1>
            <c2>1.0000000e-03</c2>
            <m2>-2</m2>
            <k>1.0000000e-01</k>
        </material>
        <material id="2" name="Material2" type="rigid body">
            <density>1</density>
            <center_of_mass>-7.5000000e+00, 5.5338219e-17, 5.1000000e+00</center_of_mass>
        </material>
    </Material>
    <Mesh>
        <Nodes name="nodeSet_all">
                <node id="1">-1.0000000e+01, -2.5000000e+00, -2.5000000e+00</node>
                <node id="2">-1.0000000e+01, -1.5000000e+00, -2.5000000e+00</node>
                <node id="3">-1.0000000e+01, -5.0000000e-01, -2.5000000e+00</node>
                <node id="4">-1.0000000e+01, 5.0000000e-01, -2.5000000e+00</node>
                <node id="5">-1.0000000e+01, 1.5000000e+00, -2.5000000e+00</node>
                <node id="6">-1.0000000e+01, 2.5000000e+00, -2.5000000e+00</node>
                <node id="7">-9.0000000e+00, -2.5000000e+00, -2.5000000e+00</node>
                <node id="8">-9.0000000e+00, -1.5000000e+00, -2.5000000e+00</node>
                <node id="9">-9.0000000e+00, -5.0000000e-01, -2.5000000e+00</node>
                <node id="10">-9.0000000e+00, 5.0000000e-01, -2.5000000e+00</node>
                <node id="11">-9.0000000e+00, 1.5000000e+00, -2.5000000e+00</node>
                <node id="12">-9.0000000e+00, 2.5000000e+00, -2.5000000e+00</node>
                <node id="13">-8.0000000e+00, -2.5000000e+00, -2.5000000e+00</node>
                <node id="14">-8.0000000e+00, -1.5000000e+00, -2.5000000e+00</node>
                <node id="15">-8.0000000e+00, -5.0000000e-01, -2.5000000e+00</node>
                <node id="16">-8.0000000e+00, 5.0000000e-01, -2.5000000e+00</node>
                <node id="17">-8.0000000e+00, 1.5000000e+00, -2.5000000e+00</node>
                <node id="18">-8.0000000e+00, 2.5000000e+00, -2.5000000e+00</node>
                <node id="19">-7.0000000e+00, -2.5000000e+00, -2.5000000e+00</node>
                <node id="20">-7.0000000e+00, -1.5000000e+00, -2.5000000e+00</node>
<!-- ... 1378 like lines cut -->
        </Nodes>
        <Elements name="Part1" type="hex8">
                <elem id="1">1, 7, 8, 2, 127, 133, 134, 128</elem>
                <elem id="2">2, 8, 9, 3, 128, 134, 135, 129</elem>
                <elem id="3">3, 9, 10, 4, 129, 135, 136, 130</elem>
                <elem id="4">4, 10, 11, 5, 130, 136, 137, 131</elem>
                <elem id="5">5, 11, 12, 6, 131, 137, 138, 132</elem>
                <elem id="6">7, 13, 14, 8, 133, 139, 140, 134</elem>
                <elem id="7">8, 14, 15, 9, 134, 140, 141, 135</elem>
                <elem id="8">9, 15, 16, 10, 135, 141, 142, 136</elem>
                <elem id="9">10, 16, 17, 11, 136, 142, 143, 137</elem>
                <elem id="10">11, 17, 18, 12, 137, 143, 144, 138</elem>
                <elem id="11">13, 19, 20, 14, 139, 145, 146, 140</elem>
                <elem id="12">14, 20, 21, 15, 140, 146, 147, 141</elem>
                <elem id="13">15, 21, 22, 16, 141, 147, 148, 142</elem>
                <elem id="14">16, 22, 23, 17, 142, 148, 149, 143</elem>
                <elem id="15">17, 23, 24, 18, 143, 149, 150, 144</elem>
                <elem id="16">19, 25, 26, 20, 145, 151, 152, 146</elem>
                <elem id="17">20, 26, 27, 21, 146, 152, 153, 147</elem>
                <elem id="18">21, 27, 28, 22, 147, 153, 154, 148</elem>
                <elem id="19">22, 28, 29, 23, 148, 154, 155, 149</elem>
                <elem id="20">23, 29, 30, 24, 149, 155, 156, 150</elem>
<!-- ... 480 like lines cut -->
        </Elements>
        <Elements name="Part2" type="tri3">
                <elem id="501">765, 960, 959</elem>
                <elem id="502">757, 920, 922</elem>
                <elem id="503">757, 921, 920</elem>
                <elem id="504">766, 967, 964</elem>
                <elem id="505">760, 938, 934</elem>
                <elem id="506">761, 940, 943</elem>
                <elem id="507">768, 974, 975</elem>
                <elem id="508">768, 975, 977</elem>
                <elem id="509">768, 977, 978</elem>
                <elem id="510">768, 978, 976</elem>
                <elem id="511">766, 966, 968</elem>
                <elem id="512">764, 957, 958</elem>
                <elem id="513">758, 926, 927</elem>
                <elem id="514">759, 929, 932</elem>
                <elem id="515">763, 949, 953</elem>
                <elem id="516">758, 925, 926</elem>
                <elem id="517">766, 965, 966</elem>
                <elem id="518">763, 951, 949</elem>
                <elem id="519">762, 946, 945</elem>
                <elem id="520">762, 945, 947</elem>
<!-- ... 1260 like lines cut -->
        </Elements>
        <NodeSet name="bcSupportList">
                <node id="1"/>
                <node id="2"/>
                <node id="3"/>
                <node id="4"/>
                <node id="5"/>
                <node id="6"/>
                <node id="7"/>
                <node id="8"/>
                <node id="9"/>
                <node id="10"/>
                <node id="11"/>
                <node id="12"/>
                <node id="13"/>
                <node id="14"/>
                <node id="15"/>
                <node id="16"/>
                <node id="17"/>
                <node id="18"/>
                <node id="19"/>
                <node id="20"/>
<!-- ... 106 like lines cut -->
        </NodeSet>
        <Surface name="contactSurface1">
                <tri3 id="1">765, 960, 959</tri3>
                <tri3 id="2">757, 920, 922</tri3>
                <tri3 id="3">757, 921, 920</tri3>
                <tri3 id="4">766, 967, 964</tri3>
                <tri3 id="5">760, 938, 934</tri3>
                <tri3 id="6">761, 940, 943</tri3>
                <tri3 id="7">768, 974, 975</tri3>
                <tri3 id="8">768, 975, 977</tri3>
                <tri3 id="9">768, 977, 978</tri3>
                <tri3 id="10">768, 978, 976</tri3>
                <tri3 id="11">766, 966, 968</tri3>
                <tri3 id="12">764, 957, 958</tri3>
                <tri3 id="13">758, 926, 927</tri3>
                <tri3 id="14">759, 929, 932</tri3>
                <tri3 id="15">763, 949, 953</tri3>
                <tri3 id="16">758, 925, 926</tri3>
                <tri3 id="17">766, 965, 966</tri3>
                <tri3 id="18">763, 951, 949</tri3>
                <tri3 id="19">762, 946, 945</tri3>
                <tri3 id="20">762, 945, 947</tri3>
<!-- ... 1260 like lines cut -->
        </Surface>
        <Surface name="contactSurface2">
                <quad4 id="1">631, 637, 638, 632</quad4>
                <quad4 id="2">632, 638, 639, 633</quad4>
                <quad4 id="3">633, 639, 640, 634</quad4>
                <quad4 id="4">634, 640, 641, 635</quad4>
                <quad4 id="5">635, 641, 642, 636</quad4>
                <quad4 id="6">637, 643, 644, 638</quad4>
                <quad4 id="7">638, 644, 645, 639</quad4>
                <quad4 id="8">639, 645, 646, 640</quad4>
                <quad4 id="9">640, 646, 647, 641</quad4>
                <quad4 id="10">641, 647, 648, 642</quad4>
                <quad4 id="11">643, 649, 650, 644</quad4>
                <quad4 id="12">644, 650, 651, 645</quad4>
                <quad4 id="13">645, 651, 652, 646</quad4>
                <quad4 id="14">646, 652, 653, 647</quad4>
                <quad4 id="15">647, 653, 654, 648</quad4>
                <quad4 id="16">649, 655, 656, 650</quad4>
                <quad4 id="17">650, 656, 657, 651</quad4>
                <quad4 id="18">651, 657, 658, 652</quad4>
                <quad4 id="19">652, 658, 659, 653</quad4>
                <quad4 id="20">653, 659, 660, 654</quad4>
<!-- ... 80 like lines cut -->
        </Surface>
        <SurfacePair name="Contact1">
            <primary>contactSurface2</primary>
            <secondary>contactSurface1</secondary>
        </SurfacePair>
    </Mesh>
    <MeshDomains>
        <SolidDomain mat="Material1" name="Part1"/>
        <ShellDomain mat="Material2" name="Part2"/>
    </MeshDomains>
    <Boundary>
        <bc node_set="bcSupportList" type="fix">
            <dofs>x,y,z</dofs>
        </bc>
    </Boundary>
    <Contact>
        <contact surface_pair="Contact1" type="sliding-elastic">
            <two_pass>0</two_pass>
            <laugon>0</laugon>
            <tolerance>2.0000000e-01</tolerance>
            <gaptol>0</gaptol>
            <minaug>1</minaug>
            <maxaug>10</maxaug>
            <search_tol>1.0000000e-02</search_tol>
            <search_radius>1.0000000e-01</search_radius>
            <symmetric_stiffness>0</symmetric_stiffness>
            <auto_penalty>1</auto_penalty>
            <penalty>10</penalty>
            <fric_coeff>0</fric_coeff>
        </contact>
    </Contact>
    <LoadData>
        <load_controller id="1" type="loadcurve">
            <interpolate>LINEAR</interpolate>
            <points>
                    <point>0, 0</point>
                    <point>1, 1</point>
                    <point>2, 1</point>
            </points>
        </load_controller>
        <load_controller id="2" type="loadcurve">
            <interpolate>LINEAR</interpolate>
            <points>
                    <point>0, 0</point>
                    <point>1, 0</point>
                    <point>2, 1</point>
            </points>
        </load_controller>
    </LoadData>
    <Step>
        <step id="1">
            <Control>
                <time_steps>20</time_steps>
                <step_size>5.0000000e-02</step_size>
                <solver>
                    <max_refs>30</max_refs>
                    <max_ups>0</max_ups>
                    <symmetric_stiffness>0</symmetric_stiffness>
                    <diverge_reform>1</diverge_reform>
                    <reform_each_time_step>1</reform_each_time_step>
                    <dtol>1.0000000e-03</dtol>
                    <etol>1.0000000e-02</etol>
                    <rtol>0</rtol>
                    <lstol>9.0000000e-01</lstol>
                    <lsmin>1.0000000e-02</lsmin>
                    <lsiter>5</lsiter>
                    <min_residual>1.0000000e-20</min_residual>
                    <optimize_bw>0</optimize_bw>
                    <qnmethod>0</qnmethod>
                    <cmax>100000</cmax>
                </solver>
                <time_stepper>
                    <dtmin>5.0000000e-04</dtmin>
                    <dtmax>5.0000000e-02</dtmax>
                    <max_retries>5</max_retries>
                    <opt_iter>20</opt_iter>
                </time_stepper>
                <analysis>STATIC</analysis>
                <plot_level>PLOT_MAJOR_ITRS</plot_level>
                <plot_range>0, -1</plot_range>
                <plot_stride>1</plot_stride>
                <plot_zero_state>0</plot_zero_state>
                <output_level>OUTPUT_MAJOR_ITRS</output_level>
            </Control>
            <Rigid>
                <rigid_constraint name="RigidFix_1" type="fix">
                    <rb>2</rb>
                    <dofs>Rx,Ry</dofs>
                </rigid_constraint>
                <rigid_constraint name="RigidPrescribe" type="prescribe">
                    <rb>2</rb>
                    <dof>Rz</dof>
                    <value lc="1">-2.6000000e+00</value>
                    <relative>0</relative>
                </rigid_constraint>
            </Rigid>
        </step>
        <step id="2">
            <Control>
                <time_steps>20</time_steps>
                <step_size>5.0000000e-02</step_size>
                <solver>
                    <max_refs>30</max_refs>
                    <max_ups>0</max_ups>
                    <symmetric_stiffness>0</symmetric_stiffness>
                    <diverge_reform>1</diverge_reform>
                    <reform_each_time_step>1</reform_each_time_step>
                    <dtol>1.0000000e-03</dtol>
                    <etol>1.0000000e-02</etol>
                    <rtol>0</rtol>
                    <lstol>9.0000000e-01</lstol>
                    <lsmin>1.0000000e-02</lsmin>
                    <lsiter>5</lsiter>
                    <min_residual>1.0000000e-20</min_residual>
                    <optimize_bw>0</optimize_bw>
                    <qnmethod>0</qnmethod>
                    <cmax>100000</cmax>
                </solver>
                <time_stepper>
                    <dtmin>5.0000000e-04</dtmin>
                    <dtmax>5.0000000e-02</dtmax>
                    <max_retries>5</max_retries>
                    <opt_iter>20</opt_iter>
                </time_stepper>
                <analysis>STATIC</analysis>
                <plot_level>PLOT_MAJOR_ITRS</plot_level>
                <plot_range>0, -1</plot_range>
                <plot_stride>1</plot_stride>
                <plot_zero_state>0</plot_zero_state>
                <output_level>OUTPUT_MAJOR_ITRS</output_level>
            </Control>
            <Rigid>
                <rigid_constraint name="RigidFix_1" type="fix">
                    <rb>2</rb>
                    <dofs>Ry,Rz</dofs>
                </rigid_constraint>
                <rigid_constraint name="RigidPrescribe" type="prescribe">
                    <rb>2</rb>
                    <dof>Rx</dof>
                    <value lc="2">15</value>
                </rigid_constraint>
            </Rigid>
        </step>
    </Step>
    <Output>
        <plotfile type="febio">
            <var type="displacement"/>
            <var type="stress"/>
            <var type="relative volume"/>
            <var type="reaction forces"/>
            <var type="contact pressure"/>
        </plotfile>
        <logfile file="tempModel.txt">
            <node_data data="ux;uy;uz" delim="," file="tempModel_disp_out.txt">1, 2, 3, 4, 5, 6, 7, 8, 9, 10, 11, 12, 13, 14, 15, 16, 17, 18, 19, 20, 21, 22, 23, 24, 25, 26, 27, 28, 29, 30, 31, 32, 33, 34, 35, 36, 37, 38, 39, 40, 41, 42, 43, 44, 45, 46, 47, 48, 49, 50, 51, 52, 53, 54, 55, 56, 57, 58, 59, 60, 61, 62, 63, 64, 65, 66, 67, 68, 69, 70, 71, 72, 73, 74, 75, 76, 77, 78, 79, 80, 81, 82, 83
            <node_data data="Rx;Ry;Rz" delim="," file="tempModel_force_out.txt">1, 2, 3, 4, 5, 6, 7, 8, 9, 10, 11, 12, 13, 14, 15, 16, 17, 18, 19, 20, 21, 22, 23, 24, 25, 26, 27, 28, 29, 30, 31, 32, 33, 34, 35, 36, 37, 38, 39, 40, 41, 42, 43, 44, 45, 46, 47, 48, 49, 50, 51, 52, 53, 54, 55, 56, 57, 58, 59, 60, 61, 62, 63, 64, 65, 66, 67, 68, 69, 70, 71, 72, 73, 74, 75, 76, 77, 78, 79, 80, 81, 82, 8
            <element_data data="s3" delim="," file="tempModel_stress_out.txt">1, 2, 3, 4, 5, 6, 7, 8, 9, 10, 11, 12, 13, 14, 15, 16, 17, 18, 19, 20, 21, 22, 23, 24, 25, 26, 27, 28, 29, 30, 31, 32, 33, 34, 35, 36, 37, 38, 39, 40, 41, 42, 43, 44, 45, 46, 47, 48, 49, 50, 51, 52, 53, 54, 55, 56, 57, 58, 59, 60, 61, 62, 63, 64, 65, 66, 67, 68, 69, 70, 71, 72, 73, 74, 75, 76, 77, 78, 79, 80, 81, 82, 83,
        </logfile>
    </Output>
</febio_spec>
