<?xml version="1.0" encoding="UTF-8"?>
<febio_spec version="4.0">
    <!--Created using GIBBON, 02-Jun-2023 17:08:30-->
    <Module type="solid"/>
    <Control>
        <analysis>STATIC</analysis>
        <time_steps>10</time_steps>
        <step_size>1.0000000e-01</step_size>
        <plot_zero_state>1</plot_zero_state>
        <plot_range>0, -1</plot_range>
        <plot_level>PLOT_MAJOR_ITRS</plot_level>
        <plot_stride>1</plot_stride>
        <output_level>OUTPUT_MAJOR_ITRS</output_level>
        <adaptor_re_solve>1</adaptor_re_solve>
        <time_stepper type="default">
            <max_retries>5</max_retries>
            <opt_iter>6</opt_iter>
            <dtmin>1.0000000e-03</dtmin>
            <dtmax>1.0000000e-01</dtmax>
            <aggressiveness>0</aggressiveness>
            <cutback>5.0000000e-01</cutback>
            <dtforce>0</dtforce>
        </time_stepper>
        <solver type="solid">
            <symmetric_stiffness>1</symmetric_stiffness>
            <equation_scheme>staggered</equation_scheme>
            <equation_order>default</equation_order>
            <optimize_bw>0</optimize_bw>
            <lstol>9.0000000e-01</lstol>
            <lsmin>1.0000000e-02</lsmin>
            <lsiter>5</lsiter>
            <max_refs>25</max_refs>
            <check_zero_diagonal>0</check_zero_diagonal>
            <zero_diagonal_tol>0</zero_diagonal_tol>
            <force_partition>0</force_partition>
            <reform_each_time_step>1</reform_each_time_step>
            <reform_augment>0</reform_augment>
            <diverge_reform>1</diverge_reform>
            <min_residual>1.0000000e-20</min_residual>
            <max_residual>0</max_residual>
            <dtol>1.0000000e-03</dtol>
            <etol>1.0000000e-02</etol>
            <rtol>0</rtol>
            <rhoi>0</rhoi>
            <alpha>1</alpha>
            <beta>2.5000000e-01</beta>
            <gamma>5.0000000e-01</gamma>
            <logSolve>0</logSolve>
            <arc_length>0</arc_length>
            <arc_length_scale>0</arc_length_scale>
            <qn_method type="BFGS">
                <max_ups>0</max_ups>
                <max_buffer_size>0</max_buffer_size>
                <cycle_buffer>1</cycle_buffer>
                <cmax>100000</cmax>
            </qn_method>
        </solver>
    </Control>
    <Globals>
        <Constants>
            <R>8.3140000e-06</R>
            <T>298</T>
            <Fc>9.6485000e-05</Fc>
        </Constants>
    </Globals>
    <Material>
        <material id="1" name="Material1" type="neo-Hookean">
            <E>1.0000000e-01</E>
            <v>4.0000000e-01</v>
        </material>
    </Material>
    <Mesh>
        <Nodes name="Object1">
                <node id="1">-5, -5, -5</node>
                <node id="2">-5, -3, -5</node>
                <node id="3">-5, -1, -5</node>
                <node id="4">-5, 1, -5</node>
                <node id="5">-5, 3, -5</node>
                <node id="6">-5, 5, -5</node>
                <node id="7">-3, -5, -5</node>
                <node id="8">-3, -3, -5</node>
                <node id="9">-3, -1, -5</node>
                <node id="10">-3, 1, -5</node>
                <node id="11">-3, 3, -5</node>
                <node id="12">-3, 5, -5</node>
                <node id="13">-1, -5, -5</node>
                <node id="14">-1, -3, -5</node>
                <node id="15">-1, -1, -5</node>
                <node id="16">-1, 1, -5</node>
                <node id="17">-1, 3, -5</node>
                <node id="18">-1, 5, -5</node>
                <node id="19">1, -5, -5</node>
                <node id="20">1, -3, -5</node>
<!-- ... 196 like lines cut -->
        </Nodes>
        <Elements name="Part1" type="hex8">
                <elem id="1">1, 7, 8, 2, 37, 43, 44, 38</elem>
                <elem id="2">2, 8, 9, 3, 38, 44, 45, 39</elem>
                <elem id="3">3, 9, 10, 4, 39, 45, 46, 40</elem>
                <elem id="4">4, 10, 11, 5, 40, 46, 47, 41</elem>
                <elem id="5">5, 11, 12, 6, 41, 47, 48, 42</elem>
                <elem id="6">7, 13, 14, 8, 43, 49, 50, 44</elem>
                <elem id="7">8, 14, 15, 9, 44, 50, 51, 45</elem>
                <elem id="8">9, 15, 16, 10, 45, 51, 52, 46</elem>
                <elem id="9">10, 16, 17, 11, 46, 52, 53, 47</elem>
                <elem id="10">11, 17, 18, 12, 47, 53, 54, 48</elem>
                <elem id="11">13, 19, 20, 14, 49, 55, 56, 50</elem>
                <elem id="12">14, 20, 21, 15, 50, 56, 57, 51</elem>
                <elem id="13">15, 21, 22, 16, 51, 57, 58, 52</elem>
                <elem id="14">16, 22, 23, 17, 52, 58, 59, 53</elem>
                <elem id="15">17, 23, 24, 18, 53, 59, 60, 54</elem>
                <elem id="16">19, 25, 26, 20, 55, 61, 62, 56</elem>
                <elem id="17">20, 26, 27, 21, 56, 62, 63, 57</elem>
                <elem id="18">21, 27, 28, 22, 57, 63, 64, 58</elem>
                <elem id="19">22, 28, 29, 23, 58, 64, 65, 59</elem>
                <elem id="20">23, 29, 30, 24, 59, 65, 66, 60</elem>
<!-- ... 105 like lines cut -->
        </Elements>
        <NodeSet name="bcSupportList_X">1, 2, 3, 4, 5, 6, 37, 38, 
 39, 40, 41, 42, 73, 74, 75, 76, 
 77, 78, 109, 110, 111, 112, 113, 114, 
 145, 146, 147, 148, 149, 150, 181, 182, 
 183, 184, 185, 186</NodeSet>
        <NodeSet name="bcSupportList_Y">1, 7, 13, 19, 25, 31, 37, 43, 
 49, 55, 61, 67, 73, 79, 85, 91, 
 97, 103, 109, 115, 121, 127, 133, 139, 
 145, 151, 157, 163, 169, 175, 181, 187, 
 193, 199, 205, 211</NodeSet>
        <NodeSet name="bcSupportList_Z">1, 2, 3, 4, 5, 6, 7, 8, 
 9, 10, 11, 12, 13, 14, 15, 16, 
 17, 18, 19, 20, 21, 22, 23, 24, 
 25, 26, 27, 28, 29, 30, 31, 32, 
 33, 34, 35, 36</NodeSet>
        <NodeSet name="bcPrescribeList">181, 182, 183, 184, 185, 186, 187, 188, 
 189, 190, 191, 192, 193, 194, 195, 196, 
 197, 198, 199, 200, 201, 202, 203, 204, 
 205, 206, 207, 208, 209, 210, 211, 212, 
 213, 214, 215, 216</NodeSet>
    </Mesh>
    <MeshDomains>
        <SolidDomain mat="Material1" name="Part1"/>
    </MeshDomains>
    <Boundary>
        <bc name="zero_displacement_x" node_set="bcSupportList_X" type="zero displacement">
            <x_dof>1</x_dof>
            <y_dof>0</y_dof>
            <z_dof>0</z_dof>
        </bc>
        <bc name="zero_displacement_y" node_set="bcSupportList_Y" type="zero displacement">
            <x_dof>0</x_dof>
            <y_dof>1</y_dof>
            <z_dof>0</z_dof>
        </bc>
        <bc name="zero_displacement_z" node_set="bcSupportList_Z" type="zero displacement">
            <x_dof>0</x_dof>
            <y_dof>0</y_dof>
            <z_dof>1</z_dof>
        </bc>
        <bc name="prescibed_displacement_z" node_set="bcPrescribeList" type="prescribed displacement">
            <dof>z</dof>
            <value lc="1">-3</value>
            <relative>0</relative>
        </bc>
    </Boundary>
    <LoadData>
        <load_controller id="1" name="LC_1" type="loadcurve">
            <interpolate>LINEAR</interpolate>
            <points>
                    <pt>0, 0</pt>
                    <pt>1, 1</pt>
            </points>
        </load_controller>
    </LoadData>
    <Output>
        <plotfile type="febio">
            <var type="displacement"/>
            <var type="stress"/>
            <var type="relative volume"/>
            <var type="reaction forces"/>
            <var type="contact pressure"/>
            <compression>0</compression>
        </plotfile>
        <logfile file="tempModel.txt">
            <node_data data="ux;uy;uz" delim="," file="tempModel_disp_out.txt"/>
            <node_data data="Rx;Ry;Rz" delim="," file="tempModel_force_out.txt"/>
            <element_data data="sz" delim="," file="tempModel_stress_out.txt"/>
            <element_data data="Uz" delim="," file="tempModel_stretch_out.txt"/>
            <element_data data="s1;s2;s3" delim="," file="tempModel_stress_prin_out.txt"/>
            <element_data data="U1;U2;U3" delim="," file="tempModel_stretch_prin_out.txt"/>
        </logfile>
    </Output>
</febio_spec>
