<?xml version="1.0" encoding="utf-8"?>
<febio_spec version="1.1">
   <Material>
      <material id="1" name="mat_1" type="Mooney-Rivlin">
         <c1>1.0000000e-03</c1>
         <c2>0.0000000e+00</c2>
         <k>1.0000000e+00</k>
      </material>
      <material id="2" name="mat_2" type="Mooney-Rivlin">
         <c1>2.0000000e-03</c1>
         <c2>0.0000000e+00</c2>
         <k>2.0000000e+00</k>
      </material>
   </Material>
   <Geometry>
      <Nodes>
         <node id="1">6.4383492e-17, -1.0514622e+00, -1.7013016e+00</node>
         <node id="2">6.4383492e-17, -1.0514622e+00, 1.7013016e+00</node>
         <node id="3">6.4383492e-17, 1.0514622e+00, 1.7013016e+00</node>
         <node id="4">6.4383492e-17, 1.0514622e+00, -1.7013016e+00</node>
         <node id="5">-1.0514622e+00, -1.7013016e+00, 0.0000000e+00</node>
         <node id="6">-1.0514622e+00, 1.7013016e+00, 0.0000000e+00</node>
         <node id="7">1.0514622e+00, 1.7013016e+00, 0.0000000e+00</node>
         <node id="8">1.0514622e+00, -1.7013016e+00, 0.0000000e+00</node>
         <node id="9">-1.7013016e+00, 2.0834936e-16, -1.0514622e+00</node>
         <node id="10">1.7013016e+00, 0.0000000e+00, -1.0514622e+00</node>
         <node id="11">1.7013016e+00, 0.0000000e+00, 1.0514622e+00</node>
         <node id="12">-1.7013016e+00, 2.0834936e-16, 1.0514622e+00</node>
         <node id="13">1.2246468e-16, 0.0000000e+00, -2.0000000e+00</node>
         <node id="14">-6.1803399e-01, -1.6180340e+00, -1.0000000e+00</node>
         <node id="15">6.1803399e-01, -1.6180340e+00, -1.0000000e+00</node>
         <node id="16">-1.0000000e+00, -6.1803399e-01, -1.6180340e+00</node>
         <node id="17">1.0000000e+00, -6.1803399e-01, -1.6180340e+00</node>
         <node id="18">1.2246468e-16, 0.0000000e+00, 2.0000000e+00</node>
         <node id="19">-6.1803399e-01, -1.6180340e+00, 1.0000000e+00</node>
         <node id="20">6.1803399e-01, -1.6180340e+00, 1.0000000e+00</node>
<!-- ... 1981 like lines cut -->
      </Nodes>
      <Elements>
         <tet4 id="1" mat="2">   1654,   1117,   1776,   1963</tet4>
         <tet4 id="2" mat="1">   733,   681,   906,   1673</tet4>
         <tet4 id="3" mat="2">   1601,   1634,   1945,   1947</tet4>
         <tet4 id="4" mat="1">   519,   113,   1315,   1469</tet4>
         <tet4 id="5" mat="1">   658,   688,   750,   1564</tet4>
         <tet4 id="6" mat="1">   364,   618,   1366,   1569</tet4>
         <tet4 id="7" mat="1">   1060,   944,   1325,   1497</tet4>
         <tet4 id="8" mat="1">   1297,   437,   1647,   1821</tet4>
         <tet4 id="9" mat="1">   420,   118,   429,   1253</tet4>
         <tet4 id="10" mat="1">   649,   966,   1018,   1767</tet4>
         <tet4 id="11" mat="1">   888,   693,   1057,   1843</tet4>
         <tet4 id="12" mat="1">   244,   1142,   1844,   1962</tet4>
         <tet4 id="13" mat="1">   366,   156,   635,   937</tet4>
         <tet4 id="14" mat="1">   907,   1013,   1236,   1438</tet4>
         <tet4 id="15" mat="2">   691,   692,   1693,   1961</tet4>
         <tet4 id="16" mat="1">   184,   468,   834,   902</tet4>
         <tet4 id="17" mat="1">   927,   867,   1069,   1332</tet4>
         <tet4 id="18" mat="1">   516,   332,   80,   1348</tet4>
         <tet4 id="19" mat="1">   826,   301,   856,   874</tet4>
         <tet4 id="20" mat="1">   450,   227,   1012,   1393</tet4>
<!-- ... 10527 like lines cut -->
      </Elements>
   </Geometry>
   <Output>
      <plotfile type="febio">
         <var type="displacement"/>
         <var type="stress"/>
         <var type="relative volume"/>
         <var type="shell thickness"/>
      </plotfile>
      <logfile>
         <node_data data="ux;uy;uz" delim=", " file="C:\Users\kmmoerman\00_WORK\05_MATLAB\gibbon\trunk\data\temp\tetGenModel_node_out.txt"/>
      </logfile>
   </Output>
   <Control>
      <time_steps>10.000000</time_steps>
      <step_size>0.100000</step_size>
      <max_refs>25.000000</max_refs>
      <max_ups>0.000000</max_ups>
      <dtol>0.001000</dtol>
      <etol>0.010000</etol>
      <rtol>0.000000</rtol>
      <lstol>0.900000</lstol>
      <analysis type="static"/>
      <time_stepper>
         <dtmin>0.000010</dtmin>
         <dtmax>0.100000</dtmax>
         <max_retries>5.000000</max_retries>
         <opt_iter>5.000000</opt_iter>
         <aggressiveness>1.000000</aggressiveness>
      </time_stepper>
   </Control>
   <Boundary>
      <prescribe>
         <node bc="x" id="1" lc="1">0.000000</node>
         <node bc="x" id="2" lc="1">0.000000</node>
         <node bc="x" id="3" lc="1">-0.000000</node>
         <node bc="x" id="4" lc="1">-0.000000</node>
         <node bc="x" id="5" lc="1">-0.107826</node>
         <node bc="x" id="6" lc="1">-0.155040</node>
         <node bc="x" id="7" lc="1">0.155040</node>
         <node bc="x" id="8" lc="1">0.107826</node>
         <node bc="x" id="9" lc="1">-0.212663</node>
         <node bc="x" id="10" lc="1">0.212663</node>
         <node bc="x" id="11" lc="1">0.212663</node>
         <node bc="x" id="12" lc="1">-0.212663</node>
         <node bc="x" id="13" lc="1">0.000000</node>
         <node bc="x" id="14" lc="1">-0.148082</node>
         <node bc="x" id="15" lc="1">0.148082</node>
         <node bc="x" id="16" lc="1">0.123990</node>
         <node bc="x" id="17" lc="1">-0.123990</node>
         <node bc="x" id="18" lc="1">0.000000</node>
         <node bc="x" id="19" lc="1">-0.148082</node>
         <node bc="x" id="20" lc="1">0.148082</node>
<!-- ... 622 like lines cut -->
         <node bc="y" id="1" lc="1">-0.394298</node>
         <node bc="y" id="2" lc="1">-0.394298</node>
         <node bc="y" id="3" lc="1">-0.131433</node>
         <node bc="y" id="4" lc="1">-0.131433</node>
         <node bc="y" id="5" lc="1">-0.174466</node>
         <node bc="y" id="6" lc="1">0.250859</node>
         <node bc="y" id="7" lc="1">0.250859</node>
         <node bc="y" id="8" lc="1">-0.174466</node>
         <node bc="y" id="9" lc="1">0.000000</node>
         <node bc="y" id="10" lc="1">0.000000</node>
         <node bc="y" id="11" lc="1">0.000000</node>
         <node bc="y" id="12" lc="1">0.000000</node>
         <node bc="y" id="13" lc="1">0.000000</node>
         <node bc="y" id="14" lc="1">-0.387685</node>
         <node bc="y" id="15" lc="1">-0.387685</node>
         <node bc="y" id="16" lc="1">0.076630</node>
         <node bc="y" id="17" lc="1">0.076630</node>
         <node bc="y" id="18" lc="1">0.000000</node>
         <node bc="y" id="19" lc="1">-0.387685</node>
         <node bc="y" id="20" lc="1">-0.387685</node>
<!-- ... 622 like lines cut -->
         <node bc="z" id="1" lc="1">0.000000</node>
         <node bc="z" id="2" lc="1">0.000000</node>
         <node bc="z" id="3" lc="1">0.000000</node>
         <node bc="z" id="4" lc="1">0.000000</node>
         <node bc="z" id="5" lc="1">0.000000</node>
         <node bc="z" id="6" lc="1">0.000000</node>
         <node bc="z" id="7" lc="1">0.000000</node>
         <node bc="z" id="8" lc="1">0.000000</node>
         <node bc="z" id="9" lc="1">0.000000</node>
         <node bc="z" id="10" lc="1">0.000000</node>
         <node bc="z" id="11" lc="1">0.000000</node>
         <node bc="z" id="12" lc="1">0.000000</node>
         <node bc="z" id="13" lc="1">0.000000</node>
         <node bc="z" id="14" lc="1">0.000000</node>
         <node bc="z" id="15" lc="1">0.000000</node>
         <node bc="z" id="16" lc="1">0.000000</node>
         <node bc="z" id="17" lc="1">0.000000</node>
         <node bc="z" id="18" lc="1">0.000000</node>
         <node bc="z" id="19" lc="1">0.000000</node>
         <node bc="z" id="20" lc="1">0.000000</node>
<!-- ... 622 like lines cut -->
      </prescribe>
   </Boundary>
   <LoadData>
      <loadcurve id="1" type="smooth">
         <loadpoint>0.000000, 0.000000</loadpoint>
         <loadpoint>1.000000, 1.000000</loadpoint>
      </loadcurve>
   </LoadData>
</febio_spec>
